Global frequency set at 1000000000000 ticks per second
gem5 Simulator System.  http://gem5.org
gem5 is copyrighted software; use the --copyright option for details.

gem5 version 20.1.0.2
gem5 compiled Jan 26 2024 10:22:01
gem5 started Jan 26 2024 10:42:41
gem5 executing on node28, pid 9776
command line: build/X86/gem5.opt --debug-flags=HanGuDriver,CxtResc configs/example/rdma/hangu_rnic_se.py --cpu-clock 4GHz --num-cpus 1 -c 'tests/test-progs/hangu-rnic/src/qos/server;tests/test-progs/hangu-rnic/src/qos/client' -o '-s 10 -t 1 -m 0;-s 10 -l 11 -t 1 -m 0' --node-num 2 --ethernet-linkspeed 100Gbps --pci-linkspeed 128Gbps --qpc-cache-cap 100 --reorder-cap 64 --mem-size 2048MB

{'num_cpus': 1, 'sys_voltage': '1.0V', 'sys_clock': '1GHz', 'mem_type': 'DDR3_1600_8x8', 'mem_channels': 1, 'mem_ranks': None, 'mem_size': '2048MB', 'enable_dram_powerdown': None, 'mem_channels_intlv': 0, 'memchecker': None, 'external_memory_system': None, 'tlm_memory': None, 'caches': None, 'l2cache': None, 'num_dirs': 1, 'num_l2caches': 1, 'num_l3caches': 1, 'l1d_size': '64kB', 'l1i_size': '32kB', 'l2_size': '2MB', 'l3_size': '16MB', 'l1d_assoc': 2, 'l1i_assoc': 2, 'l2_assoc': 8, 'l3_assoc': 16, 'cacheline_size': 64, 'ruby': None, 'abs_max_tick': 18446744073709551615, 'rel_max_tick': None, 'maxtime': None, 'param': [], 'cpu_type': 'AtomicSimpleCPU', 'bp_type': None, 'indirect_bp_type': None, 'l1i_hwp_type': None, 'l1d_hwp_type': None, 'l2_hwp_type': None, 'checker': None, 'cpu_clock': '4GHz', 'smt': False, 'elastic_trace_en': None, 'inst_trace_file': '', 'data_trace_file': '', 'lpae': None, 'virtualisation': None, 'dist': None, 'dist_sync_on_pseudo_op': None, 'is_switch': None, 'dist_rank': 0, 'dist_size': 0, 'dist_server_name': '127.0.0.1', 'dist_server_port': 2200, 'dist_sync_repeat': '0us', 'dist_sync_start': '5200000000000t', 'ethernet_linkspeed': '100Gbps', 'ethernet_linkdelay': '10us', 'maxinsts': None, 'work_item_id': None, 'num_work_ids': None, 'work_begin_cpu_id_exit': None, 'work_end_exit_count': None, 'work_begin_exit_count': None, 'init_param': 0, 'initialize_only': False, 'simpoint_profile': None, 'simpoint_interval': 10000000, 'take_simpoint_checkpoints': None, 'restore_simpoint_checkpoint': None, 'take_checkpoints': None, 'max_checkpoints': 5, 'checkpoint_dir': None, 'checkpoint_restore': None, 'checkpoint_at_end': None, 'work_begin_checkpoint_count': None, 'work_end_checkpoint_count': None, 'work_cpus_checkpoint_count': None, 'restore_with_cpu': 'AtomicSimpleCPU', 'repeat_switch': None, 'standard_switch': None, 'prog_interval': None, 'warmup_insts': None, 'bench': None, 'fast_forward': None, 'simpoint': False, 'at_instruction': False, 'spec_input': 'ref', 'arm_iset': 'arm', 'stats_root': [], 'cmd': 'tests/test-progs/hangu-rnic/src/qos/server;tests/test-progs/hangu-rnic/src/qos/client', 'options': '-s 10 -t 1 -m 0;-s 10 -l 11 -t 1 -m 0', 'env': '', 'input': '', 'output': '', 'errout': '', 'chroot': None, 'interp_dir': None, 'redirects': [], 'wait_gdb': False, 'node_num': 2, 'pci_linkspeed': '128Gbps', 'qpc_cache_cap': 100, 'reorder_cap': 64}
tests/test-progs/hangu-rnic/src/qos/server
['tests/test-progs/hangu-rnic/src/qos/server', '-s', '10', '-t', '1', '-m', '0', '-c', '0']
tests/test-progs/hangu-rnic/src/qos/client
['tests/test-progs/hangu-rnic/src/qos/client', '-s', '10', '-l', '11', '-t', '1', '-m', '0', '-c', '0']
**** REAL SIMULATION ****
6888250: svrsys.cpu.workload.drivers: [HanGuDriver] open : hangu_rnic0.
6909500: svrsys.cpu.workload.drivers: [HanGuDriver]  rnic hangu_rnic doorbell mmap (start: 0, length: 0x1000, offset: 0x0) cxt_id 0
6909500: svrsys.cpu.workload.drivers: [HanGuDriver]  addrList size 1
6909500: svrsys.cpu.workload.drivers: [HanGuDriver]  baseAddrBar0.start 0xc000000000000000, baseAddrBar0.size() 0x1000
6909500: svrsys.cpu.workload.drivers: [HanGuDriver]  rnic hangu_rnic doorbell mapped to 0x7ffff7ffe000
7044250: svrsys.cpu.workload.drivers: [HanGuDriver]  ioctl : HGKFD_IOC_INIT_DEV.
7044250: svrsys.cpu.workload.drivers: [HanGuDriver]  mailbox.vaddr : 0x7ffff7fde000, mailbox.paddr : 0xe5000
7044250: svrsys.cpu.workload.drivers: [HanGuDriver]  HGKFD_IOC_INIT_DEV mailbox initialized
7044250: svrsys.cpu.workload.drivers: [HanGuDriver]  mttMeta.entryNumPage 0x800
7044250: svrsys.cpu.workload.drivers: [HanGuDriver]  mptMeta.entryNumPage 0x2000
7044250: svrsys.cpu.workload.drivers: [HanGuDriver]  cqcMeta.entryNumPage 0x1000
7044250: svrsys.cpu.workload.drivers: [HanGuDriver]  qpcMeta.entryNumPage 0x10000
7044250: svrsys.cpu.workload.drivers: [HanGuDriver]  Start Write hcr
7044250: svrsys.cpu.workload.drivers: [HanGuDriver] physical qosShareAddr set into BAR0: 0x105000
7459000: cltsys.cpu.workload.drivers: [HanGuDriver] open : hangu_rnic0.
7480250: cltsys.cpu.workload.drivers: [HanGuDriver]  rnic hangu_rnic doorbell mmap (start: 0, length: 0x1000, offset: 0x0) cxt_id 0
7480250: cltsys.cpu.workload.drivers: [HanGuDriver]  addrList size 1
7480250: cltsys.cpu.workload.drivers: [HanGuDriver]  baseAddrBar0.start 0xc000000000000000, baseAddrBar0.size() 0x1000
7480250: cltsys.cpu.workload.drivers: [HanGuDriver]  rnic hangu_rnic doorbell mapped to 0x7ffff7ffe000
7615000: cltsys.cpu.workload.drivers: [HanGuDriver]  ioctl : HGKFD_IOC_INIT_DEV.
7615000: cltsys.cpu.workload.drivers: [HanGuDriver]  mailbox.vaddr : 0x7ffff7fde000, mailbox.paddr : 0xe4000
7615000: cltsys.cpu.workload.drivers: [HanGuDriver]  HGKFD_IOC_INIT_DEV mailbox initialized
7615000: cltsys.cpu.workload.drivers: [HanGuDriver]  mttMeta.entryNumPage 0x800
7615000: cltsys.cpu.workload.drivers: [HanGuDriver]  mptMeta.entryNumPage 0x2000
7615000: cltsys.cpu.workload.drivers: [HanGuDriver]  cqcMeta.entryNumPage 0x1000
7615000: cltsys.cpu.workload.drivers: [HanGuDriver]  qpcMeta.entryNumPage 0x10000
7615000: cltsys.cpu.workload.drivers: [HanGuDriver]  Start Write hcr
7615000: cltsys.cpu.workload.drivers: [HanGuDriver] physical qosShareAddr set into BAR0: 0x104000
9989000: svrsys.cpu.workload.drivers: [HanGuDriver] ioctl: HGKFD_IOC_ALLOC_GROUP
9989000: svrsys.cpu.workload.drivers: [HanGuDriver]  Start Write hcr
9989000: svrsys.cpu.workload.drivers: [HanGuDriver] group allocated! group ID: 0, groupNum: 1
10559750: cltsys.cpu.workload.drivers: [HanGuDriver] ioctl: HGKFD_IOC_ALLOC_GROUP
10559750: cltsys.cpu.workload.drivers: [HanGuDriver]  Start Write hcr
10559750: cltsys.cpu.workload.drivers: [HanGuDriver] group allocated! group ID: 0, groupNum: 1
13084000: svrsys.cpu.workload.drivers: [HanGuDriver] ioctl: HGKFD_IOC_SET_GROUP
13084000: svrsys.cpu.workload.drivers: [HanGuDriver] into setGroup command in driver! group num: 1, table size: 0
13084000: svrsys.cpu.workload.drivers: [HanGuDriver] write group weight to shared space, group id: 0, weight: 10
13084000: svrsys.cpu.workload.drivers: [HanGuDriver] write group weight sum to shared space: 10
13084000: svrsys.cpu.workload.drivers: [HanGuDriver] set group granularity! group id: 0, group weight: 10, QP weight sum: 0, granularity: 0
13084000: svrsys.cpu.workload.drivers: [HanGuDriver] ---------------------------
13084000: svrsys.cpu.workload.drivers: [HanGuDriver] print QoS info! group num: 1
13084000: svrsys.cpu.workload.drivers: [HanGuDriver] ---------------------------
13084000: svrsys.cpu.workload.drivers: [HanGuDriver]  Start Write hcr
13654750: cltsys.cpu.workload.drivers: [HanGuDriver] ioctl: HGKFD_IOC_SET_GROUP
13654750: cltsys.cpu.workload.drivers: [HanGuDriver] into setGroup command in driver! group num: 1, table size: 0
13654750: cltsys.cpu.workload.drivers: [HanGuDriver] write group weight to shared space, group id: 0, weight: 10
13654750: cltsys.cpu.workload.drivers: [HanGuDriver] write group weight sum to shared space: 10
13654750: cltsys.cpu.workload.drivers: [HanGuDriver] set group granularity! group id: 0, group weight: 10, QP weight sum: 0, granularity: 0
13654750: cltsys.cpu.workload.drivers: [HanGuDriver] ---------------------------
13654750: cltsys.cpu.workload.drivers: [HanGuDriver] print QoS info! group num: 1
13654750: cltsys.cpu.workload.drivers: [HanGuDriver] ---------------------------
13654750: cltsys.cpu.workload.drivers: [HanGuDriver]  Start Write hcr
16834750: svrsys.cpu.workload.drivers: [HanGuDriver]  ioctl : HGKFD_IOC_ALLOC_MTT.
16834750: svrsys.cpu.workload.drivers: [HanGuDriver]  HGKFD_IOC_ALLOC_MTT: vaddr: 0x6e2000, paddr: 0x107000 mtt_index 0
16834750: svrsys.cpu.workload.drivers: [HanGuDriver]  HGKFD_IOC_ALLOC_MTT mtt allocated
16834750: svrsys.cpu.workload.drivers: [HanGuDriver]  HGKFD_IOC_ALLOC_MTT mtt not mapped
16834750: svrsys.cpu.workload.drivers: [HanGuDriver]  rescMeta.start: 0x0, index 0x0, entrySize 8 icmVPage 0x0
16834750: svrsys.cpu.workload.drivers: [HanGuDriver]  icmAddrmap[0x0(0)]: 0x10a000
16834750: svrsys.cpu.workload.drivers: [HanGuDriver]  icmAddrmap[0x1(1)]: 0x10b000
16834750: svrsys.cpu.workload.drivers: [HanGuDriver]  icmAddrmap[0x2(2)]: 0x10c000
16834750: svrsys.cpu.workload.drivers: [HanGuDriver]  icmAddrmap[0x3(3)]: 0x10d000
16834750: svrsys.cpu.workload.drivers: [HanGuDriver]  icmAddrmap[0x4(4)]: 0x10e000
16834750: svrsys.cpu.workload.drivers: [HanGuDriver]  icmAddrmap[0x5(5)]: 0x10f000
16834750: svrsys.cpu.workload.drivers: [HanGuDriver]  icmAddrmap[0x6(6)]: 0x110000
16834750: svrsys.cpu.workload.drivers: [HanGuDriver]  icmAddrmap[0x7(7)]: 0x111000
16834750: svrsys.cpu.workload.drivers: [HanGuDriver]  icmAddrmap[0x8(8)]: 0x112000
16834750: svrsys.cpu.workload.drivers: [HanGuDriver]  icmAddrmap[0x9(9)]: 0x113000
16834750: svrsys.cpu.workload.drivers: [HanGuDriver]  icmAddrmap[0xa(10)]: 0x114000
16834750: svrsys.cpu.workload.drivers: [HanGuDriver]  icmAddrmap[0xb(11)]: 0x115000
16834750: svrsys.cpu.workload.drivers: [HanGuDriver]  icmAddrmap[0xc(12)]: 0x116000
16834750: svrsys.cpu.workload.drivers: [HanGuDriver]  icmAddrmap[0xd(13)]: 0x117000
16834750: svrsys.cpu.workload.drivers: [HanGuDriver]  icmAddrmap[0xe(14)]: 0x118000
16834750: svrsys.cpu.workload.drivers: [HanGuDriver]  icmAddrmap[0xf(15)]: 0x119000
16834750: svrsys.cpu.workload.drivers: [HanGuDriver]  pageNum 16, vAddr 0x0, pAddr 0x10a000
16834750: svrsys.cpu.workload.drivers: [HanGuDriver]  Start Write hcr
16834750: svrsys.cpu.workload.drivers: [HanGuDriver]  HGKFD_IOC_ALLOC_MTT mtt ICM mapping is written
17404250: cltsys.cpu.workload.drivers: [HanGuDriver]  ioctl : HGKFD_IOC_ALLOC_MTT.
17404250: cltsys.cpu.workload.drivers: [HanGuDriver]  HGKFD_IOC_ALLOC_MTT: vaddr: 0x6e1000, paddr: 0x106000 mtt_index 0
17404250: cltsys.cpu.workload.drivers: [HanGuDriver]  HGKFD_IOC_ALLOC_MTT mtt allocated
17404250: cltsys.cpu.workload.drivers: [HanGuDriver]  HGKFD_IOC_ALLOC_MTT mtt not mapped
17404250: cltsys.cpu.workload.drivers: [HanGuDriver]  rescMeta.start: 0x0, index 0x0, entrySize 8 icmVPage 0x0
17404250: cltsys.cpu.workload.drivers: [HanGuDriver]  icmAddrmap[0x0(0)]: 0x109000
17404250: cltsys.cpu.workload.drivers: [HanGuDriver]  icmAddrmap[0x1(1)]: 0x10a000
17404250: cltsys.cpu.workload.drivers: [HanGuDriver]  icmAddrmap[0x2(2)]: 0x10b000
17404250: cltsys.cpu.workload.drivers: [HanGuDriver]  icmAddrmap[0x3(3)]: 0x10c000
17404250: cltsys.cpu.workload.drivers: [HanGuDriver]  icmAddrmap[0x4(4)]: 0x10d000
17404250: cltsys.cpu.workload.drivers: [HanGuDriver]  icmAddrmap[0x5(5)]: 0x10e000
17404250: cltsys.cpu.workload.drivers: [HanGuDriver]  icmAddrmap[0x6(6)]: 0x10f000
17404250: cltsys.cpu.workload.drivers: [HanGuDriver]  icmAddrmap[0x7(7)]: 0x110000
17404250: cltsys.cpu.workload.drivers: [HanGuDriver]  icmAddrmap[0x8(8)]: 0x111000
17404250: cltsys.cpu.workload.drivers: [HanGuDriver]  icmAddrmap[0x9(9)]: 0x112000
17404250: cltsys.cpu.workload.drivers: [HanGuDriver]  icmAddrmap[0xa(10)]: 0x113000
17404250: cltsys.cpu.workload.drivers: [HanGuDriver]  icmAddrmap[0xb(11)]: 0x114000
17404250: cltsys.cpu.workload.drivers: [HanGuDriver]  icmAddrmap[0xc(12)]: 0x115000
17404250: cltsys.cpu.workload.drivers: [HanGuDriver]  icmAddrmap[0xd(13)]: 0x116000
17404250: cltsys.cpu.workload.drivers: [HanGuDriver]  icmAddrmap[0xe(14)]: 0x117000
17404250: cltsys.cpu.workload.drivers: [HanGuDriver]  icmAddrmap[0xf(15)]: 0x118000
17404250: cltsys.cpu.workload.drivers: [HanGuDriver]  pageNum 16, vAddr 0x0, pAddr 0x109000
17404250: cltsys.cpu.workload.drivers: [HanGuDriver]  Start Write hcr
17404250: cltsys.cpu.workload.drivers: [HanGuDriver]  HGKFD_IOC_ALLOC_MTT mtt ICM mapping is written
19623000: svrsys.cpu.workload.drivers: [HanGuDriver]  ioctl : HGKFD_IOC_WRITE_MTT.
19623000: svrsys.cpu.workload.drivers: [HanGuDriver]  Start Write hcr
20192500: cltsys.cpu.workload.drivers: [HanGuDriver]  ioctl : HGKFD_IOC_WRITE_MTT.
20192500: cltsys.cpu.workload.drivers: [HanGuDriver]  Start Write hcr
22598250: svrsys.cpu.workload.drivers: [HanGuDriver]  ioctl : HGKFD_IOC_ALLOC_MPT. batch_size 1
22598250: svrsys.cpu.workload.drivers: [HanGuDriver]  HGKFD_IOC_ALLOC_MPT: mpt_index 0 batch_size 1
22598250: svrsys.cpu.workload.drivers: [HanGuDriver]  get into ioctl HGKFD_IOC_ALLOC_MPT: mpt_start_index: 0
22598250: svrsys.cpu.workload.drivers: [HanGuDriver]  rescMeta.start: 0x800000, index 0x0, entrySize 32 icmVPage 0x800
22598250: svrsys.cpu.workload.drivers: [HanGuDriver]  icmAddrmap[0x800(0)]: 0x11a000
22598250: svrsys.cpu.workload.drivers: [HanGuDriver]  icmAddrmap[0x801(1)]: 0x11b000
22598250: svrsys.cpu.workload.drivers: [HanGuDriver]  icmAddrmap[0x802(2)]: 0x11c000
22598250: svrsys.cpu.workload.drivers: [HanGuDriver]  icmAddrmap[0x803(3)]: 0x11d000
22598250: svrsys.cpu.workload.drivers: [HanGuDriver]  icmAddrmap[0x804(4)]: 0x11e000
22598250: svrsys.cpu.workload.drivers: [HanGuDriver]  icmAddrmap[0x805(5)]: 0x11f000
22598250: svrsys.cpu.workload.drivers: [HanGuDriver]  icmAddrmap[0x806(6)]: 0x120000
22598250: svrsys.cpu.workload.drivers: [HanGuDriver]  icmAddrmap[0x807(7)]: 0x121000
22598250: svrsys.cpu.workload.drivers: [HanGuDriver]  icmAddrmap[0x808(8)]: 0x122000
22598250: svrsys.cpu.workload.drivers: [HanGuDriver]  icmAddrmap[0x809(9)]: 0x123000
22598250: svrsys.cpu.workload.drivers: [HanGuDriver]  icmAddrmap[0x80a(10)]: 0x124000
22598250: svrsys.cpu.workload.drivers: [HanGuDriver]  icmAddrmap[0x80b(11)]: 0x125000
22598250: svrsys.cpu.workload.drivers: [HanGuDriver]  icmAddrmap[0x80c(12)]: 0x126000
22598250: svrsys.cpu.workload.drivers: [HanGuDriver]  icmAddrmap[0x80d(13)]: 0x127000
22598250: svrsys.cpu.workload.drivers: [HanGuDriver]  icmAddrmap[0x80e(14)]: 0x128000
22598250: svrsys.cpu.workload.drivers: [HanGuDriver]  icmAddrmap[0x80f(15)]: 0x129000
22598250: svrsys.cpu.workload.drivers: [HanGuDriver]  pageNum 16, vAddr 0x800000, pAddr 0x11a000
22598250: svrsys.cpu.workload.drivers: [HanGuDriver]  Start Write hcr
23167750: cltsys.cpu.workload.drivers: [HanGuDriver]  ioctl : HGKFD_IOC_ALLOC_MPT. batch_size 1
23167750: cltsys.cpu.workload.drivers: [HanGuDriver]  HGKFD_IOC_ALLOC_MPT: mpt_index 0 batch_size 1
23167750: cltsys.cpu.workload.drivers: [HanGuDriver]  get into ioctl HGKFD_IOC_ALLOC_MPT: mpt_start_index: 0
23167750: cltsys.cpu.workload.drivers: [HanGuDriver]  rescMeta.start: 0x800000, index 0x0, entrySize 32 icmVPage 0x800
23167750: cltsys.cpu.workload.drivers: [HanGuDriver]  icmAddrmap[0x800(0)]: 0x119000
23167750: cltsys.cpu.workload.drivers: [HanGuDriver]  icmAddrmap[0x801(1)]: 0x11a000
23167750: cltsys.cpu.workload.drivers: [HanGuDriver]  icmAddrmap[0x802(2)]: 0x11b000
23167750: cltsys.cpu.workload.drivers: [HanGuDriver]  icmAddrmap[0x803(3)]: 0x11c000
23167750: cltsys.cpu.workload.drivers: [HanGuDriver]  icmAddrmap[0x804(4)]: 0x11d000
23167750: cltsys.cpu.workload.drivers: [HanGuDriver]  icmAddrmap[0x805(5)]: 0x11e000
23167750: cltsys.cpu.workload.drivers: [HanGuDriver]  icmAddrmap[0x806(6)]: 0x11f000
23167750: cltsys.cpu.workload.drivers: [HanGuDriver]  icmAddrmap[0x807(7)]: 0x120000
23167750: cltsys.cpu.workload.drivers: [HanGuDriver]  icmAddrmap[0x808(8)]: 0x121000
23167750: cltsys.cpu.workload.drivers: [HanGuDriver]  icmAddrmap[0x809(9)]: 0x122000
23167750: cltsys.cpu.workload.drivers: [HanGuDriver]  icmAddrmap[0x80a(10)]: 0x123000
23167750: cltsys.cpu.workload.drivers: [HanGuDriver]  icmAddrmap[0x80b(11)]: 0x124000
23167750: cltsys.cpu.workload.drivers: [HanGuDriver]  icmAddrmap[0x80c(12)]: 0x125000
23167750: cltsys.cpu.workload.drivers: [HanGuDriver]  icmAddrmap[0x80d(13)]: 0x126000
23167750: cltsys.cpu.workload.drivers: [HanGuDriver]  icmAddrmap[0x80e(14)]: 0x127000
23167750: cltsys.cpu.workload.drivers: [HanGuDriver]  icmAddrmap[0x80f(15)]: 0x128000
23167750: cltsys.cpu.workload.drivers: [HanGuDriver]  pageNum 16, vAddr 0x800000, pAddr 0x119000
23167750: cltsys.cpu.workload.drivers: [HanGuDriver]  Start Write hcr
25538500: svrsys.cpu.workload.drivers: [HanGuDriver]  ioctl : HGKFD_IOC_WRITE_MPT.
25538500: svrsys.cpu.workload.drivers: [HanGuDriver]  HGKFD_IOC_WRITE_MPT: mpt_index 0(0) mtt_index 0(0) batch_size 1
25538500: svrsys.cpu.workload.drivers: [HanGuDriver]  Start Write hcr
26108000: cltsys.cpu.workload.drivers: [HanGuDriver]  ioctl : HGKFD_IOC_WRITE_MPT.
26108000: cltsys.cpu.workload.drivers: [HanGuDriver]  HGKFD_IOC_WRITE_MPT: mpt_index 0(0) mtt_index 0(0) batch_size 1
26108000: cltsys.cpu.workload.drivers: [HanGuDriver]  Start Write hcr
28534500: svrsys.cpu.workload.drivers: [HanGuDriver]  ioctl : HGKFD_IOC_ALLOC_CQ.
28534500: svrsys.cpu.workload.drivers: [HanGuDriver]  rescMeta.start: 0x2800000, index 0x0, entrySize 16 icmVPage 0x2800
28534500: svrsys.cpu.workload.drivers: [HanGuDriver]  icmAddrmap[0x2800(0)]: 0x12b000
28534500: svrsys.cpu.workload.drivers: [HanGuDriver]  icmAddrmap[0x2801(1)]: 0x12c000
28534500: svrsys.cpu.workload.drivers: [HanGuDriver]  icmAddrmap[0x2802(2)]: 0x12d000
28534500: svrsys.cpu.workload.drivers: [HanGuDriver]  icmAddrmap[0x2803(3)]: 0x12e000
28534500: svrsys.cpu.workload.drivers: [HanGuDriver]  icmAddrmap[0x2804(4)]: 0x12f000
28534500: svrsys.cpu.workload.drivers: [HanGuDriver]  icmAddrmap[0x2805(5)]: 0x130000
28534500: svrsys.cpu.workload.drivers: [HanGuDriver]  icmAddrmap[0x2806(6)]: 0x131000
28534500: svrsys.cpu.workload.drivers: [HanGuDriver]  icmAddrmap[0x2807(7)]: 0x132000
28534500: svrsys.cpu.workload.drivers: [HanGuDriver]  icmAddrmap[0x2808(8)]: 0x133000
28534500: svrsys.cpu.workload.drivers: [HanGuDriver]  icmAddrmap[0x2809(9)]: 0x134000
28534500: svrsys.cpu.workload.drivers: [HanGuDriver]  icmAddrmap[0x280a(10)]: 0x135000
28534500: svrsys.cpu.workload.drivers: [HanGuDriver]  icmAddrmap[0x280b(11)]: 0x136000
28534500: svrsys.cpu.workload.drivers: [HanGuDriver]  icmAddrmap[0x280c(12)]: 0x137000
28534500: svrsys.cpu.workload.drivers: [HanGuDriver]  icmAddrmap[0x280d(13)]: 0x138000
28534500: svrsys.cpu.workload.drivers: [HanGuDriver]  icmAddrmap[0x280e(14)]: 0x139000
28534500: svrsys.cpu.workload.drivers: [HanGuDriver]  icmAddrmap[0x280f(15)]: 0x13a000
28534500: svrsys.cpu.workload.drivers: [HanGuDriver]  pageNum 16, vAddr 0x2800000, pAddr 0x12b000
28534500: svrsys.cpu.workload.drivers: [HanGuDriver]  Start Write hcr
29104000: cltsys.cpu.workload.drivers: [HanGuDriver]  ioctl : HGKFD_IOC_ALLOC_CQ.
29104000: cltsys.cpu.workload.drivers: [HanGuDriver]  rescMeta.start: 0x2800000, index 0x0, entrySize 16 icmVPage 0x2800
29104000: cltsys.cpu.workload.drivers: [HanGuDriver]  icmAddrmap[0x2800(0)]: 0x12a000
29104000: cltsys.cpu.workload.drivers: [HanGuDriver]  icmAddrmap[0x2801(1)]: 0x12b000
29104000: cltsys.cpu.workload.drivers: [HanGuDriver]  icmAddrmap[0x2802(2)]: 0x12c000
29104000: cltsys.cpu.workload.drivers: [HanGuDriver]  icmAddrmap[0x2803(3)]: 0x12d000
29104000: cltsys.cpu.workload.drivers: [HanGuDriver]  icmAddrmap[0x2804(4)]: 0x12e000
29104000: cltsys.cpu.workload.drivers: [HanGuDriver]  icmAddrmap[0x2805(5)]: 0x12f000
29104000: cltsys.cpu.workload.drivers: [HanGuDriver]  icmAddrmap[0x2806(6)]: 0x130000
29104000: cltsys.cpu.workload.drivers: [HanGuDriver]  icmAddrmap[0x2807(7)]: 0x131000
29104000: cltsys.cpu.workload.drivers: [HanGuDriver]  icmAddrmap[0x2808(8)]: 0x132000
29104000: cltsys.cpu.workload.drivers: [HanGuDriver]  icmAddrmap[0x2809(9)]: 0x133000
29104000: cltsys.cpu.workload.drivers: [HanGuDriver]  icmAddrmap[0x280a(10)]: 0x134000
29104000: cltsys.cpu.workload.drivers: [HanGuDriver]  icmAddrmap[0x280b(11)]: 0x135000
29104000: cltsys.cpu.workload.drivers: [HanGuDriver]  icmAddrmap[0x280c(12)]: 0x136000
29104000: cltsys.cpu.workload.drivers: [HanGuDriver]  icmAddrmap[0x280d(13)]: 0x137000
29104000: cltsys.cpu.workload.drivers: [HanGuDriver]  icmAddrmap[0x280e(14)]: 0x138000
29104000: cltsys.cpu.workload.drivers: [HanGuDriver]  icmAddrmap[0x280f(15)]: 0x139000
29104000: cltsys.cpu.workload.drivers: [HanGuDriver]  pageNum 16, vAddr 0x2800000, pAddr 0x12a000
29104000: cltsys.cpu.workload.drivers: [HanGuDriver]  Start Write hcr
32387750: svrsys.cpu.workload.drivers: [HanGuDriver]  ioctl : HGKFD_IOC_ALLOC_MTT.
32387750: svrsys.cpu.workload.drivers: [HanGuDriver]  HGKFD_IOC_ALLOC_MTT: vaddr: 0x6e4000, paddr: 0x109000 mtt_index 1
32387750: svrsys.cpu.workload.drivers: [HanGuDriver]  HGKFD_IOC_ALLOC_MTT mtt allocated
32957250: cltsys.cpu.workload.drivers: [HanGuDriver]  ioctl : HGKFD_IOC_ALLOC_MTT.
32957250: cltsys.cpu.workload.drivers: [HanGuDriver]  HGKFD_IOC_ALLOC_MTT: vaddr: 0x6e3000, paddr: 0x108000 mtt_index 1
32957250: cltsys.cpu.workload.drivers: [HanGuDriver]  HGKFD_IOC_ALLOC_MTT mtt allocated
35176000: svrsys.cpu.workload.drivers: [HanGuDriver]  ioctl : HGKFD_IOC_WRITE_MTT.
35176000: svrsys.cpu.workload.drivers: [HanGuDriver]  Start Write hcr
35745500: cltsys.cpu.workload.drivers: [HanGuDriver]  ioctl : HGKFD_IOC_WRITE_MTT.
35745500: cltsys.cpu.workload.drivers: [HanGuDriver]  Start Write hcr
38178750: svrsys.cpu.workload.drivers: [HanGuDriver]  ioctl : HGKFD_IOC_ALLOC_MPT. batch_size 1
38178750: svrsys.cpu.workload.drivers: [HanGuDriver]  HGKFD_IOC_ALLOC_MPT: mpt_index 1 batch_size 1
38178750: svrsys.cpu.workload.drivers: [HanGuDriver]  get into ioctl HGKFD_IOC_ALLOC_MPT: mpt_start_index: 1
38748250: cltsys.cpu.workload.drivers: [HanGuDriver]  ioctl : HGKFD_IOC_ALLOC_MPT. batch_size 1
38748250: cltsys.cpu.workload.drivers: [HanGuDriver]  HGKFD_IOC_ALLOC_MPT: mpt_index 1 batch_size 1
38748250: cltsys.cpu.workload.drivers: [HanGuDriver]  get into ioctl HGKFD_IOC_ALLOC_MPT: mpt_start_index: 1
41149250: svrsys.cpu.workload.drivers: [HanGuDriver]  ioctl : HGKFD_IOC_WRITE_MPT.
41149250: svrsys.cpu.workload.drivers: [HanGuDriver]  HGKFD_IOC_WRITE_MPT: mpt_index 1(1) mtt_index 1(1) batch_size 1
41149250: svrsys.cpu.workload.drivers: [HanGuDriver]  Start Write hcr
41718750: cltsys.cpu.workload.drivers: [HanGuDriver]  ioctl : HGKFD_IOC_WRITE_MPT.
41718750: cltsys.cpu.workload.drivers: [HanGuDriver]  HGKFD_IOC_WRITE_MPT: mpt_index 1(1) mtt_index 1(1) batch_size 1
41718750: cltsys.cpu.workload.drivers: [HanGuDriver]  Start Write hcr
44079750: svrsys.cpu.workload.drivers: [HanGuDriver]  ioctl : HGKFD_IOC_WRITE_CQC.
44079750: svrsys.cpu.workload.drivers: [HanGuDriver]  Start Write hcr
44649250: cltsys.cpu.workload.drivers: [HanGuDriver]  ioctl : HGKFD_IOC_WRITE_CQC.
44649250: cltsys.cpu.workload.drivers: [HanGuDriver]  Start Write hcr
47115000: svrsys.cpu.workload.drivers: [HanGuDriver]  ioctl : HGKFD_IOC_ALLOC_QP.
47115000: svrsys.cpu.workload.drivers: [HanGuDriver]  rescMeta.start: 0x3800000, index 0x0, entrySize 260 icmVPage 0x3800
47115000: svrsys.cpu.workload.drivers: [HanGuDriver]  icmAddrmap[0x3800(0)]: 0x13d000
47115000: svrsys.cpu.workload.drivers: [HanGuDriver]  icmAddrmap[0x3801(1)]: 0x13e000
47115000: svrsys.cpu.workload.drivers: [HanGuDriver]  icmAddrmap[0x3802(2)]: 0x13f000
47115000: svrsys.cpu.workload.drivers: [HanGuDriver]  icmAddrmap[0x3803(3)]: 0x140000
47115000: svrsys.cpu.workload.drivers: [HanGuDriver]  icmAddrmap[0x3804(4)]: 0x141000
47115000: svrsys.cpu.workload.drivers: [HanGuDriver]  icmAddrmap[0x3805(5)]: 0x142000
47115000: svrsys.cpu.workload.drivers: [HanGuDriver]  icmAddrmap[0x3806(6)]: 0x143000
47115000: svrsys.cpu.workload.drivers: [HanGuDriver]  icmAddrmap[0x3807(7)]: 0x144000
47115000: svrsys.cpu.workload.drivers: [HanGuDriver]  icmAddrmap[0x3808(8)]: 0x145000
47115000: svrsys.cpu.workload.drivers: [HanGuDriver]  icmAddrmap[0x3809(9)]: 0x146000
47115000: svrsys.cpu.workload.drivers: [HanGuDriver]  icmAddrmap[0x380a(10)]: 0x147000
47115000: svrsys.cpu.workload.drivers: [HanGuDriver]  icmAddrmap[0x380b(11)]: 0x148000
47115000: svrsys.cpu.workload.drivers: [HanGuDriver]  icmAddrmap[0x380c(12)]: 0x149000
47115000: svrsys.cpu.workload.drivers: [HanGuDriver]  icmAddrmap[0x380d(13)]: 0x14a000
47115000: svrsys.cpu.workload.drivers: [HanGuDriver]  icmAddrmap[0x380e(14)]: 0x14b000
47115000: svrsys.cpu.workload.drivers: [HanGuDriver]  icmAddrmap[0x380f(15)]: 0x14c000
47115000: svrsys.cpu.workload.drivers: [HanGuDriver]  pageNum 16, vAddr 0x3800000, pAddr 0x13d000
47115000: svrsys.cpu.workload.drivers: [HanGuDriver]  Start Write hcr
47115000: svrsys.cpu.workload.drivers: [HanGuDriver]  ioctl : HGKFD_IOC_ALLOC_QP, qp_num: 0x0(0), batch_size 1
47684500: cltsys.cpu.workload.drivers: [HanGuDriver]  ioctl : HGKFD_IOC_ALLOC_QP.
47684500: cltsys.cpu.workload.drivers: [HanGuDriver]  rescMeta.start: 0x3800000, index 0x0, entrySize 260 icmVPage 0x3800
47684500: cltsys.cpu.workload.drivers: [HanGuDriver]  icmAddrmap[0x3800(0)]: 0x13c000
47684500: cltsys.cpu.workload.drivers: [HanGuDriver]  icmAddrmap[0x3801(1)]: 0x13d000
47684500: cltsys.cpu.workload.drivers: [HanGuDriver]  icmAddrmap[0x3802(2)]: 0x13e000
47684500: cltsys.cpu.workload.drivers: [HanGuDriver]  icmAddrmap[0x3803(3)]: 0x13f000
47684500: cltsys.cpu.workload.drivers: [HanGuDriver]  icmAddrmap[0x3804(4)]: 0x140000
47684500: cltsys.cpu.workload.drivers: [HanGuDriver]  icmAddrmap[0x3805(5)]: 0x141000
47684500: cltsys.cpu.workload.drivers: [HanGuDriver]  icmAddrmap[0x3806(6)]: 0x142000
47684500: cltsys.cpu.workload.drivers: [HanGuDriver]  icmAddrmap[0x3807(7)]: 0x143000
47684500: cltsys.cpu.workload.drivers: [HanGuDriver]  icmAddrmap[0x3808(8)]: 0x144000
47684500: cltsys.cpu.workload.drivers: [HanGuDriver]  icmAddrmap[0x3809(9)]: 0x145000
47684500: cltsys.cpu.workload.drivers: [HanGuDriver]  icmAddrmap[0x380a(10)]: 0x146000
47684500: cltsys.cpu.workload.drivers: [HanGuDriver]  icmAddrmap[0x380b(11)]: 0x147000
47684500: cltsys.cpu.workload.drivers: [HanGuDriver]  icmAddrmap[0x380c(12)]: 0x148000
47684500: cltsys.cpu.workload.drivers: [HanGuDriver]  icmAddrmap[0x380d(13)]: 0x149000
47684500: cltsys.cpu.workload.drivers: [HanGuDriver]  icmAddrmap[0x380e(14)]: 0x14a000
47684500: cltsys.cpu.workload.drivers: [HanGuDriver]  icmAddrmap[0x380f(15)]: 0x14b000
47684500: cltsys.cpu.workload.drivers: [HanGuDriver]  pageNum 16, vAddr 0x3800000, pAddr 0x13c000
47684500: cltsys.cpu.workload.drivers: [HanGuDriver]  Start Write hcr
47684500: cltsys.cpu.workload.drivers: [HanGuDriver]  ioctl : HGKFD_IOC_ALLOC_QP, qp_num: 0x0(0), batch_size 1
50846750: svrsys.cpu.workload.drivers: [HanGuDriver]  ioctl : HGKFD_IOC_ALLOC_MTT.
50846750: svrsys.cpu.workload.drivers: [HanGuDriver]  HGKFD_IOC_ALLOC_MTT: vaddr: 0x6e6000, paddr: 0x12a000 mtt_index 2
50846750: svrsys.cpu.workload.drivers: [HanGuDriver]  HGKFD_IOC_ALLOC_MTT mtt allocated
51416250: cltsys.cpu.workload.drivers: [HanGuDriver]  ioctl : HGKFD_IOC_ALLOC_MTT.
51416250: cltsys.cpu.workload.drivers: [HanGuDriver]  HGKFD_IOC_ALLOC_MTT: vaddr: 0x6e5000, paddr: 0x129000 mtt_index 2
51416250: cltsys.cpu.workload.drivers: [HanGuDriver]  HGKFD_IOC_ALLOC_MTT mtt allocated
53635000: svrsys.cpu.workload.drivers: [HanGuDriver]  ioctl : HGKFD_IOC_WRITE_MTT.
53635000: svrsys.cpu.workload.drivers: [HanGuDriver]  Start Write hcr
54204500: cltsys.cpu.workload.drivers: [HanGuDriver]  ioctl : HGKFD_IOC_WRITE_MTT.
54204500: cltsys.cpu.workload.drivers: [HanGuDriver]  Start Write hcr
56637750: svrsys.cpu.workload.drivers: [HanGuDriver]  ioctl : HGKFD_IOC_ALLOC_MPT. batch_size 1
56637750: svrsys.cpu.workload.drivers: [HanGuDriver]  HGKFD_IOC_ALLOC_MPT: mpt_index 2 batch_size 1
56637750: svrsys.cpu.workload.drivers: [HanGuDriver]  get into ioctl HGKFD_IOC_ALLOC_MPT: mpt_start_index: 2
57207250: cltsys.cpu.workload.drivers: [HanGuDriver]  ioctl : HGKFD_IOC_ALLOC_MPT. batch_size 1
57207250: cltsys.cpu.workload.drivers: [HanGuDriver]  HGKFD_IOC_ALLOC_MPT: mpt_index 2 batch_size 1
57207250: cltsys.cpu.workload.drivers: [HanGuDriver]  get into ioctl HGKFD_IOC_ALLOC_MPT: mpt_start_index: 2
59613500: svrsys.cpu.workload.drivers: [HanGuDriver]  ioctl : HGKFD_IOC_WRITE_MPT.
59613500: svrsys.cpu.workload.drivers: [HanGuDriver]  HGKFD_IOC_WRITE_MPT: mpt_index 2(2) mtt_index 2(2) batch_size 1
59613500: svrsys.cpu.workload.drivers: [HanGuDriver]  Start Write hcr
60183000: cltsys.cpu.workload.drivers: [HanGuDriver]  ioctl : HGKFD_IOC_WRITE_MPT.
60183000: cltsys.cpu.workload.drivers: [HanGuDriver]  HGKFD_IOC_WRITE_MPT: mpt_index 2(2) mtt_index 2(2) batch_size 1
60183000: cltsys.cpu.workload.drivers: [HanGuDriver]  Start Write hcr
63397250: svrsys.cpu.workload.drivers: [HanGuDriver]  ioctl : HGKFD_IOC_ALLOC_MTT.
63397250: svrsys.cpu.workload.drivers: [HanGuDriver]  HGKFD_IOC_ALLOC_MTT: vaddr: 0x6e8000, paddr: 0x13c000 mtt_index 3
63397250: svrsys.cpu.workload.drivers: [HanGuDriver]  HGKFD_IOC_ALLOC_MTT mtt allocated
63966750: cltsys.cpu.workload.drivers: [HanGuDriver]  ioctl : HGKFD_IOC_ALLOC_MTT.
63966750: cltsys.cpu.workload.drivers: [HanGuDriver]  HGKFD_IOC_ALLOC_MTT: vaddr: 0x6e7000, paddr: 0x13b000 mtt_index 3
63966750: cltsys.cpu.workload.drivers: [HanGuDriver]  HGKFD_IOC_ALLOC_MTT mtt allocated
66185500: svrsys.cpu.workload.drivers: [HanGuDriver]  ioctl : HGKFD_IOC_WRITE_MTT.
66185500: svrsys.cpu.workload.drivers: [HanGuDriver]  Start Write hcr
66755000: cltsys.cpu.workload.drivers: [HanGuDriver]  ioctl : HGKFD_IOC_WRITE_MTT.
66755000: cltsys.cpu.workload.drivers: [HanGuDriver]  Start Write hcr
69188250: svrsys.cpu.workload.drivers: [HanGuDriver]  ioctl : HGKFD_IOC_ALLOC_MPT. batch_size 1
69188250: svrsys.cpu.workload.drivers: [HanGuDriver]  HGKFD_IOC_ALLOC_MPT: mpt_index 3 batch_size 1
69188250: svrsys.cpu.workload.drivers: [HanGuDriver]  get into ioctl HGKFD_IOC_ALLOC_MPT: mpt_start_index: 3
69757750: cltsys.cpu.workload.drivers: [HanGuDriver]  ioctl : HGKFD_IOC_ALLOC_MPT. batch_size 1
69757750: cltsys.cpu.workload.drivers: [HanGuDriver]  HGKFD_IOC_ALLOC_MPT: mpt_index 3 batch_size 1
69757750: cltsys.cpu.workload.drivers: [HanGuDriver]  get into ioctl HGKFD_IOC_ALLOC_MPT: mpt_start_index: 3
72158750: svrsys.cpu.workload.drivers: [HanGuDriver]  ioctl : HGKFD_IOC_WRITE_MPT.
72158750: svrsys.cpu.workload.drivers: [HanGuDriver]  HGKFD_IOC_WRITE_MPT: mpt_index 3(3) mtt_index 3(3) batch_size 1
72158750: svrsys.cpu.workload.drivers: [HanGuDriver]  Start Write hcr
72728250: cltsys.cpu.workload.drivers: [HanGuDriver]  ioctl : HGKFD_IOC_WRITE_MPT.
72728250: cltsys.cpu.workload.drivers: [HanGuDriver]  HGKFD_IOC_WRITE_MPT: mpt_index 3(3) mtt_index 3(3) batch_size 1
72728250: cltsys.cpu.workload.drivers: [HanGuDriver]  Start Write hcr
76103250: svrsys.cpu.workload.drivers: [HanGuDriver]  ioctl : HGKFD_IOC_WRITE_QPC
76103250: svrsys.cpu.workload.drivers: [HanGuDriver]  writeQpc: qpn: 0x0
76103250: svrsys.cpu.workload.drivers: [HanGuDriver]  writeQpc: args->batch_size: 1
76103250: svrsys.cpu.workload.drivers: [HanGuDriver]  writeQpc: args->batch_size1: 1
76103250: svrsys.cpu.workload.drivers: [HanGuDriver]  Start Write hcr
76672750: cltsys.cpu.workload.drivers: [HanGuDriver]  ioctl : HGKFD_IOC_WRITE_QPC
76672750: cltsys.cpu.workload.drivers: [HanGuDriver]  writeQpc: qpn: 0x0
76672750: cltsys.cpu.workload.drivers: [HanGuDriver]  writeQpc: args->batch_size: 1
76672750: cltsys.cpu.workload.drivers: [HanGuDriver]  writeQpc: args->batch_size1: 1
76672750: cltsys.cpu.workload.drivers: [HanGuDriver]  Start Write hcr
78883500: svrsys.cpu.workload.drivers: [HanGuDriver] ioctl: HGKFD_IOC_UPDATE_QP_WEIGHT
78883500: svrsys.cpu.workload.drivers: [HanGuDriver] qpn: 0x0, old QP weight: 0, new QP weight: 10, group ID: 0
78883500: svrsys.cpu.workload.drivers: [HanGuDriver] into loop!
78883500: svrsys.cpu.workload.drivers: [HanGuDriver] into update QP weight! setGroupNum: 1
78883500: svrsys.cpu.workload.drivers: [HanGuDriver] update granularity when update QP weight! Group ID: 0, group weight: 10, group granularity: 81920, big N: 819200, group weight sum: 10, qp weight sum: 10
78883500: svrsys.cpu.workload.drivers: [HanGuDriver] ---------------------------
78883500: svrsys.cpu.workload.drivers: [HanGuDriver] print QoS info! group num: 1
78883500: svrsys.cpu.workload.drivers: [HanGuDriver] ---------------------------
78883500: svrsys.cpu.workload.drivers: [HanGuDriver]  Start Write hcr
79453000: cltsys.cpu.workload.drivers: [HanGuDriver] ioctl: HGKFD_IOC_UPDATE_QP_WEIGHT
79453000: cltsys.cpu.workload.drivers: [HanGuDriver] qpn: 0x0, old QP weight: 0, new QP weight: 10, group ID: 0
79453000: cltsys.cpu.workload.drivers: [HanGuDriver] into loop!
79453000: cltsys.cpu.workload.drivers: [HanGuDriver] into update QP weight! setGroupNum: 1
79453000: cltsys.cpu.workload.drivers: [HanGuDriver] update granularity when update QP weight! Group ID: 0, group weight: 10, group granularity: 81920, big N: 819200, group weight sum: 10, qp weight sum: 10
79453000: cltsys.cpu.workload.drivers: [HanGuDriver] ---------------------------
79453000: cltsys.cpu.workload.drivers: [HanGuDriver] print QoS info! group num: 1
79453000: cltsys.cpu.workload.drivers: [HanGuDriver] ---------------------------
79453000: cltsys.cpu.workload.drivers: [HanGuDriver]  Start Write hcr
156964750: svrsys.cpu.workload.drivers: [HanGuDriver]  ioctl : HGKFD_IOC_ALLOC_MTT.
156964750: svrsys.cpu.workload.drivers: [HanGuDriver]  HGKFD_IOC_ALLOC_MTT: vaddr: 0x7ffff7edc000, paddr: 0x152000 mtt_index 4
156964750: svrsys.cpu.workload.drivers: [HanGuDriver]  HGKFD_IOC_ALLOC_MTT mtt allocated
157517750: cltsys.cpu.workload.drivers: [HanGuDriver]  ioctl : HGKFD_IOC_ALLOC_MTT.
157517750: cltsys.cpu.workload.drivers: [HanGuDriver]  HGKFD_IOC_ALLOC_MTT: vaddr: 0x7ffff7edc000, paddr: 0x151000 mtt_index 4
157517750: cltsys.cpu.workload.drivers: [HanGuDriver]  HGKFD_IOC_ALLOC_MTT mtt allocated
159753000: svrsys.cpu.workload.drivers: [HanGuDriver]  ioctl : HGKFD_IOC_WRITE_MTT.
159753000: svrsys.cpu.workload.drivers: [HanGuDriver]  Start Write hcr
160306000: cltsys.cpu.workload.drivers: [HanGuDriver]  ioctl : HGKFD_IOC_WRITE_MTT.
160306000: cltsys.cpu.workload.drivers: [HanGuDriver]  Start Write hcr
162752000: svrsys.cpu.workload.drivers: [HanGuDriver]  ioctl : HGKFD_IOC_ALLOC_MPT. batch_size 1
162752000: svrsys.cpu.workload.drivers: [HanGuDriver]  HGKFD_IOC_ALLOC_MPT: mpt_index 4 batch_size 1
162752000: svrsys.cpu.workload.drivers: [HanGuDriver]  get into ioctl HGKFD_IOC_ALLOC_MPT: mpt_start_index: 4
163305000: cltsys.cpu.workload.drivers: [HanGuDriver]  ioctl : HGKFD_IOC_ALLOC_MPT. batch_size 1
163305000: cltsys.cpu.workload.drivers: [HanGuDriver]  HGKFD_IOC_ALLOC_MPT: mpt_index 4 batch_size 1
163305000: cltsys.cpu.workload.drivers: [HanGuDriver]  get into ioctl HGKFD_IOC_ALLOC_MPT: mpt_start_index: 4
165719000: svrsys.cpu.workload.drivers: [HanGuDriver]  ioctl : HGKFD_IOC_WRITE_MPT.
165719000: svrsys.cpu.workload.drivers: [HanGuDriver]  HGKFD_IOC_WRITE_MPT: mpt_index 4(4) mtt_index 4(4) batch_size 1
165719000: svrsys.cpu.workload.drivers: [HanGuDriver]  Start Write hcr
166272000: cltsys.cpu.workload.drivers: [HanGuDriver]  ioctl : HGKFD_IOC_WRITE_MPT.
166272000: cltsys.cpu.workload.drivers: [HanGuDriver]  HGKFD_IOC_WRITE_MPT: mpt_index 4(4) mtt_index 4(4) batch_size 1
166272000: cltsys.cpu.workload.drivers: [HanGuDriver]  Start Write hcr
168756500: svrsys.cpu.workload.drivers: [HanGuDriver]  ioctl : HGKFD_IOC_ALLOC_CQ.
169306750: cltsys.cpu.workload.drivers: [HanGuDriver]  ioctl : HGKFD_IOC_ALLOC_CQ.
172625750: svrsys.cpu.workload.drivers: [HanGuDriver]  ioctl : HGKFD_IOC_ALLOC_MTT.
172625750: svrsys.cpu.workload.drivers: [HanGuDriver]  HGKFD_IOC_ALLOC_MTT: vaddr: 0x6ea000, paddr: 0x14e000 mtt_index 5
172625750: svrsys.cpu.workload.drivers: [HanGuDriver]  HGKFD_IOC_ALLOC_MTT mtt allocated
173169750: cltsys.cpu.workload.drivers: [HanGuDriver]  ioctl : HGKFD_IOC_ALLOC_MTT.
173169750: cltsys.cpu.workload.drivers: [HanGuDriver]  HGKFD_IOC_ALLOC_MTT: vaddr: 0x6e9000, paddr: 0x14d000 mtt_index 5
173169750: cltsys.cpu.workload.drivers: [HanGuDriver]  HGKFD_IOC_ALLOC_MTT mtt allocated
175414000: svrsys.cpu.workload.drivers: [HanGuDriver]  ioctl : HGKFD_IOC_WRITE_MTT.
175414000: svrsys.cpu.workload.drivers: [HanGuDriver]  Start Write hcr
175958000: cltsys.cpu.workload.drivers: [HanGuDriver]  ioctl : HGKFD_IOC_WRITE_MTT.
175958000: cltsys.cpu.workload.drivers: [HanGuDriver]  Start Write hcr
178406000: svrsys.cpu.workload.drivers: [HanGuDriver]  ioctl : HGKFD_IOC_ALLOC_MPT. batch_size 1
178406000: svrsys.cpu.workload.drivers: [HanGuDriver]  HGKFD_IOC_ALLOC_MPT: mpt_index 5 batch_size 1
178406000: svrsys.cpu.workload.drivers: [HanGuDriver]  get into ioctl HGKFD_IOC_ALLOC_MPT: mpt_start_index: 5
179020750: cltsys.cpu.workload.drivers: [HanGuDriver]  ioctl : HGKFD_IOC_ALLOC_MPT. batch_size 1
179020750: cltsys.cpu.workload.drivers: [HanGuDriver]  HGKFD_IOC_ALLOC_MPT: mpt_index 5 batch_size 1
179020750: cltsys.cpu.workload.drivers: [HanGuDriver]  get into ioctl HGKFD_IOC_ALLOC_MPT: mpt_start_index: 5
181368750: svrsys.cpu.workload.drivers: [HanGuDriver]  ioctl : HGKFD_IOC_WRITE_MPT.
181368750: svrsys.cpu.workload.drivers: [HanGuDriver]  HGKFD_IOC_WRITE_MPT: mpt_index 5(5) mtt_index 5(5) batch_size 1
181368750: svrsys.cpu.workload.drivers: [HanGuDriver]  Start Write hcr
181983500: cltsys.cpu.workload.drivers: [HanGuDriver]  ioctl : HGKFD_IOC_WRITE_MPT.
181983500: cltsys.cpu.workload.drivers: [HanGuDriver]  HGKFD_IOC_WRITE_MPT: mpt_index 5(5) mtt_index 5(5) batch_size 1
181983500: cltsys.cpu.workload.drivers: [HanGuDriver]  Start Write hcr
184299250: svrsys.cpu.workload.drivers: [HanGuDriver]  ioctl : HGKFD_IOC_WRITE_CQC.
184299250: svrsys.cpu.workload.drivers: [HanGuDriver]  Start Write hcr
184914000: cltsys.cpu.workload.drivers: [HanGuDriver]  ioctl : HGKFD_IOC_WRITE_CQC.
184914000: cltsys.cpu.workload.drivers: [HanGuDriver]  Start Write hcr
187300750: svrsys.cpu.workload.drivers: [HanGuDriver]  ioctl : HGKFD_IOC_ALLOC_QP.
187300750: svrsys.cpu.workload.drivers: [HanGuDriver]  rescMeta.start: 0x3800000, index 0x1, entrySize 260 icmVPage 0x3810
187300750: svrsys.cpu.workload.drivers: [HanGuDriver]  icmAddrmap[0x3810(0)]: 0x255000
187300750: svrsys.cpu.workload.drivers: [HanGuDriver]  icmAddrmap[0x3811(1)]: 0x256000
187300750: svrsys.cpu.workload.drivers: [HanGuDriver]  icmAddrmap[0x3812(2)]: 0x257000
187300750: svrsys.cpu.workload.drivers: [HanGuDriver]  icmAddrmap[0x3813(3)]: 0x258000
187300750: svrsys.cpu.workload.drivers: [HanGuDriver]  icmAddrmap[0x3814(4)]: 0x259000
187300750: svrsys.cpu.workload.drivers: [HanGuDriver]  icmAddrmap[0x3815(5)]: 0x25a000
187300750: svrsys.cpu.workload.drivers: [HanGuDriver]  icmAddrmap[0x3816(6)]: 0x25b000
187300750: svrsys.cpu.workload.drivers: [HanGuDriver]  icmAddrmap[0x3817(7)]: 0x25c000
187300750: svrsys.cpu.workload.drivers: [HanGuDriver]  icmAddrmap[0x3818(8)]: 0x25d000
187300750: svrsys.cpu.workload.drivers: [HanGuDriver]  icmAddrmap[0x3819(9)]: 0x25e000
187300750: svrsys.cpu.workload.drivers: [HanGuDriver]  icmAddrmap[0x381a(10)]: 0x25f000
187300750: svrsys.cpu.workload.drivers: [HanGuDriver]  icmAddrmap[0x381b(11)]: 0x260000
187300750: svrsys.cpu.workload.drivers: [HanGuDriver]  icmAddrmap[0x381c(12)]: 0x261000
187300750: svrsys.cpu.workload.drivers: [HanGuDriver]  icmAddrmap[0x381d(13)]: 0x262000
187300750: svrsys.cpu.workload.drivers: [HanGuDriver]  icmAddrmap[0x381e(14)]: 0x263000
187300750: svrsys.cpu.workload.drivers: [HanGuDriver]  icmAddrmap[0x381f(15)]: 0x264000
187300750: svrsys.cpu.workload.drivers: [HanGuDriver]  pageNum 16, vAddr 0x3810000, pAddr 0x255000
187300750: svrsys.cpu.workload.drivers: [HanGuDriver]  Start Write hcr
187300750: svrsys.cpu.workload.drivers: [HanGuDriver]  ioctl : HGKFD_IOC_ALLOC_QP, qp_num: 0x1(1), batch_size 256
187915500: cltsys.cpu.workload.drivers: [HanGuDriver]  ioctl : HGKFD_IOC_ALLOC_QP.
187915500: cltsys.cpu.workload.drivers: [HanGuDriver]  rescMeta.start: 0x3800000, index 0x1, entrySize 260 icmVPage 0x3810
187915500: cltsys.cpu.workload.drivers: [HanGuDriver]  icmAddrmap[0x3810(0)]: 0x254000
187915500: cltsys.cpu.workload.drivers: [HanGuDriver]  icmAddrmap[0x3811(1)]: 0x255000
187915500: cltsys.cpu.workload.drivers: [HanGuDriver]  icmAddrmap[0x3812(2)]: 0x256000
187915500: cltsys.cpu.workload.drivers: [HanGuDriver]  icmAddrmap[0x3813(3)]: 0x257000
187915500: cltsys.cpu.workload.drivers: [HanGuDriver]  icmAddrmap[0x3814(4)]: 0x258000
187915500: cltsys.cpu.workload.drivers: [HanGuDriver]  icmAddrmap[0x3815(5)]: 0x259000
187915500: cltsys.cpu.workload.drivers: [HanGuDriver]  icmAddrmap[0x3816(6)]: 0x25a000
187915500: cltsys.cpu.workload.drivers: [HanGuDriver]  icmAddrmap[0x3817(7)]: 0x25b000
187915500: cltsys.cpu.workload.drivers: [HanGuDriver]  icmAddrmap[0x3818(8)]: 0x25c000
187915500: cltsys.cpu.workload.drivers: [HanGuDriver]  icmAddrmap[0x3819(9)]: 0x25d000
187915500: cltsys.cpu.workload.drivers: [HanGuDriver]  icmAddrmap[0x381a(10)]: 0x25e000
187915500: cltsys.cpu.workload.drivers: [HanGuDriver]  icmAddrmap[0x381b(11)]: 0x25f000
187915500: cltsys.cpu.workload.drivers: [HanGuDriver]  icmAddrmap[0x381c(12)]: 0x260000
187915500: cltsys.cpu.workload.drivers: [HanGuDriver]  icmAddrmap[0x381d(13)]: 0x261000
187915500: cltsys.cpu.workload.drivers: [HanGuDriver]  icmAddrmap[0x381e(14)]: 0x262000
187915500: cltsys.cpu.workload.drivers: [HanGuDriver]  icmAddrmap[0x381f(15)]: 0x263000
187915500: cltsys.cpu.workload.drivers: [HanGuDriver]  pageNum 16, vAddr 0x3810000, pAddr 0x254000
187915500: cltsys.cpu.workload.drivers: [HanGuDriver]  Start Write hcr
187915500: cltsys.cpu.workload.drivers: [HanGuDriver]  ioctl : HGKFD_IOC_ALLOC_QP, qp_num: 0x1(1), batch_size 256
192334750: svrsys.cpu.workload.drivers: [HanGuDriver]  ioctl : HGKFD_IOC_ALLOC_QP.
192334750: svrsys.cpu.workload.drivers: [HanGuDriver]  ioctl : HGKFD_IOC_ALLOC_QP, qp_num: 0x101(257), batch_size 4
192949500: cltsys.cpu.workload.drivers: [HanGuDriver]  ioctl : HGKFD_IOC_ALLOC_QP.
192949500: cltsys.cpu.workload.drivers: [HanGuDriver]  ioctl : HGKFD_IOC_ALLOC_QP, qp_num: 0x101(257), batch_size 9
660102250: svrsys.cpu.workload.drivers: [HanGuDriver]  ioctl : HGKFD_IOC_ALLOC_MTT.
660102250: svrsys.cpu.workload.drivers: [HanGuDriver]  HGKFD_IOC_ALLOC_MTT: vaddr: 0x6fd000, paddr: 0x26b000 mtt_index 6
660102250: svrsys.cpu.workload.drivers: [HanGuDriver]  HGKFD_IOC_ALLOC_MTT: vaddr: 0x6ff000, paddr: 0x26d000 mtt_index 7
660102250: svrsys.cpu.workload.drivers: [HanGuDriver]  HGKFD_IOC_ALLOC_MTT: vaddr: 0x701000, paddr: 0x26f000 mtt_index 8
660102250: svrsys.cpu.workload.drivers: [HanGuDriver]  HGKFD_IOC_ALLOC_MTT: vaddr: 0x703000, paddr: 0x271000 mtt_index 9
660102250: svrsys.cpu.workload.drivers: [HanGuDriver]  HGKFD_IOC_ALLOC_MTT: vaddr: 0x705000, paddr: 0x273000 mtt_index 10
660102250: svrsys.cpu.workload.drivers: [HanGuDriver]  HGKFD_IOC_ALLOC_MTT: vaddr: 0x707000, paddr: 0x275000 mtt_index 11
660102250: svrsys.cpu.workload.drivers: [HanGuDriver]  HGKFD_IOC_ALLOC_MTT: vaddr: 0x709000, paddr: 0x277000 mtt_index 12
660102250: svrsys.cpu.workload.drivers: [HanGuDriver]  HGKFD_IOC_ALLOC_MTT: vaddr: 0x70b000, paddr: 0x279000 mtt_index 13
660102250: svrsys.cpu.workload.drivers: [HanGuDriver]  HGKFD_IOC_ALLOC_MTT: vaddr: 0x70d000, paddr: 0x27b000 mtt_index 14
660102250: svrsys.cpu.workload.drivers: [HanGuDriver]  HGKFD_IOC_ALLOC_MTT: vaddr: 0x70f000, paddr: 0x27d000 mtt_index 15
660102250: svrsys.cpu.workload.drivers: [HanGuDriver]  HGKFD_IOC_ALLOC_MTT: vaddr: 0x711000, paddr: 0x27f000 mtt_index 16
660102250: svrsys.cpu.workload.drivers: [HanGuDriver]  HGKFD_IOC_ALLOC_MTT: vaddr: 0x713000, paddr: 0x281000 mtt_index 17
660102250: svrsys.cpu.workload.drivers: [HanGuDriver]  HGKFD_IOC_ALLOC_MTT: vaddr: 0x715000, paddr: 0x283000 mtt_index 18
660102250: svrsys.cpu.workload.drivers: [HanGuDriver]  HGKFD_IOC_ALLOC_MTT: vaddr: 0x717000, paddr: 0x285000 mtt_index 19
660102250: svrsys.cpu.workload.drivers: [HanGuDriver]  HGKFD_IOC_ALLOC_MTT: vaddr: 0x719000, paddr: 0x287000 mtt_index 20
660102250: svrsys.cpu.workload.drivers: [HanGuDriver]  HGKFD_IOC_ALLOC_MTT: vaddr: 0x71b000, paddr: 0x289000 mtt_index 21
660102250: svrsys.cpu.workload.drivers: [HanGuDriver]  HGKFD_IOC_ALLOC_MTT: vaddr: 0x71d000, paddr: 0x28b000 mtt_index 22
660102250: svrsys.cpu.workload.drivers: [HanGuDriver]  HGKFD_IOC_ALLOC_MTT: vaddr: 0x71f000, paddr: 0x28d000 mtt_index 23
660102250: svrsys.cpu.workload.drivers: [HanGuDriver]  HGKFD_IOC_ALLOC_MTT: vaddr: 0x721000, paddr: 0x28f000 mtt_index 24
660102250: svrsys.cpu.workload.drivers: [HanGuDriver]  HGKFD_IOC_ALLOC_MTT: vaddr: 0x723000, paddr: 0x291000 mtt_index 25
660102250: svrsys.cpu.workload.drivers: [HanGuDriver]  HGKFD_IOC_ALLOC_MTT: vaddr: 0x725000, paddr: 0x293000 mtt_index 26
660102250: svrsys.cpu.workload.drivers: [HanGuDriver]  HGKFD_IOC_ALLOC_MTT: vaddr: 0x727000, paddr: 0x295000 mtt_index 27
660102250: svrsys.cpu.workload.drivers: [HanGuDriver]  HGKFD_IOC_ALLOC_MTT: vaddr: 0x729000, paddr: 0x297000 mtt_index 28
660102250: svrsys.cpu.workload.drivers: [HanGuDriver]  HGKFD_IOC_ALLOC_MTT: vaddr: 0x72b000, paddr: 0x299000 mtt_index 29
660102250: svrsys.cpu.workload.drivers: [HanGuDriver]  HGKFD_IOC_ALLOC_MTT: vaddr: 0x72d000, paddr: 0x29b000 mtt_index 30
660102250: svrsys.cpu.workload.drivers: [HanGuDriver]  HGKFD_IOC_ALLOC_MTT: vaddr: 0x72f000, paddr: 0x29e000 mtt_index 31
660102250: svrsys.cpu.workload.drivers: [HanGuDriver]  HGKFD_IOC_ALLOC_MTT: vaddr: 0x731000, paddr: 0x2a0000 mtt_index 32
660102250: svrsys.cpu.workload.drivers: [HanGuDriver]  HGKFD_IOC_ALLOC_MTT: vaddr: 0x733000, paddr: 0x2a2000 mtt_index 33
660102250: svrsys.cpu.workload.drivers: [HanGuDriver]  HGKFD_IOC_ALLOC_MTT: vaddr: 0x735000, paddr: 0x2a4000 mtt_index 34
660102250: svrsys.cpu.workload.drivers: [HanGuDriver]  HGKFD_IOC_ALLOC_MTT: vaddr: 0x737000, paddr: 0x2a6000 mtt_index 35
660102250: svrsys.cpu.workload.drivers: [HanGuDriver]  HGKFD_IOC_ALLOC_MTT: vaddr: 0x739000, paddr: 0x2a8000 mtt_index 36
660102250: svrsys.cpu.workload.drivers: [HanGuDriver]  HGKFD_IOC_ALLOC_MTT: vaddr: 0x73b000, paddr: 0x2aa000 mtt_index 37
660102250: svrsys.cpu.workload.drivers: [HanGuDriver]  HGKFD_IOC_ALLOC_MTT: vaddr: 0x73d000, paddr: 0x2ac000 mtt_index 38
660102250: svrsys.cpu.workload.drivers: [HanGuDriver]  HGKFD_IOC_ALLOC_MTT: vaddr: 0x73f000, paddr: 0x2ae000 mtt_index 39
660102250: svrsys.cpu.workload.drivers: [HanGuDriver]  HGKFD_IOC_ALLOC_MTT: vaddr: 0x741000, paddr: 0x2b0000 mtt_index 40
660102250: svrsys.cpu.workload.drivers: [HanGuDriver]  HGKFD_IOC_ALLOC_MTT: vaddr: 0x743000, paddr: 0x2b2000 mtt_index 41
660102250: svrsys.cpu.workload.drivers: [HanGuDriver]  HGKFD_IOC_ALLOC_MTT: vaddr: 0x745000, paddr: 0x2b4000 mtt_index 42
660102250: svrsys.cpu.workload.drivers: [HanGuDriver]  HGKFD_IOC_ALLOC_MTT: vaddr: 0x747000, paddr: 0x2b6000 mtt_index 43
660102250: svrsys.cpu.workload.drivers: [HanGuDriver]  HGKFD_IOC_ALLOC_MTT: vaddr: 0x749000, paddr: 0x2b8000 mtt_index 44
660102250: svrsys.cpu.workload.drivers: [HanGuDriver]  HGKFD_IOC_ALLOC_MTT: vaddr: 0x74b000, paddr: 0x2ba000 mtt_index 45
660102250: svrsys.cpu.workload.drivers: [HanGuDriver]  HGKFD_IOC_ALLOC_MTT: vaddr: 0x74d000, paddr: 0x2bc000 mtt_index 46
660102250: svrsys.cpu.workload.drivers: [HanGuDriver]  HGKFD_IOC_ALLOC_MTT: vaddr: 0x74f000, paddr: 0x2be000 mtt_index 47
660102250: svrsys.cpu.workload.drivers: [HanGuDriver]  HGKFD_IOC_ALLOC_MTT: vaddr: 0x751000, paddr: 0x2c0000 mtt_index 48
660102250: svrsys.cpu.workload.drivers: [HanGuDriver]  HGKFD_IOC_ALLOC_MTT: vaddr: 0x753000, paddr: 0x2c2000 mtt_index 49
660102250: svrsys.cpu.workload.drivers: [HanGuDriver]  HGKFD_IOC_ALLOC_MTT: vaddr: 0x755000, paddr: 0x2c4000 mtt_index 50
660102250: svrsys.cpu.workload.drivers: [HanGuDriver]  HGKFD_IOC_ALLOC_MTT: vaddr: 0x757000, paddr: 0x2c6000 mtt_index 51
660102250: svrsys.cpu.workload.drivers: [HanGuDriver]  HGKFD_IOC_ALLOC_MTT: vaddr: 0x759000, paddr: 0x2c8000 mtt_index 52
660102250: svrsys.cpu.workload.drivers: [HanGuDriver]  HGKFD_IOC_ALLOC_MTT: vaddr: 0x75b000, paddr: 0x2ca000 mtt_index 53
660102250: svrsys.cpu.workload.drivers: [HanGuDriver]  HGKFD_IOC_ALLOC_MTT: vaddr: 0x75d000, paddr: 0x2cc000 mtt_index 54
660102250: svrsys.cpu.workload.drivers: [HanGuDriver]  HGKFD_IOC_ALLOC_MTT: vaddr: 0x75f000, paddr: 0x2ce000 mtt_index 55
660102250: svrsys.cpu.workload.drivers: [HanGuDriver]  HGKFD_IOC_ALLOC_MTT: vaddr: 0x761000, paddr: 0x2d0000 mtt_index 56
660102250: svrsys.cpu.workload.drivers: [HanGuDriver]  HGKFD_IOC_ALLOC_MTT: vaddr: 0x763000, paddr: 0x2d2000 mtt_index 57
660102250: svrsys.cpu.workload.drivers: [HanGuDriver]  HGKFD_IOC_ALLOC_MTT: vaddr: 0x765000, paddr: 0x2d4000 mtt_index 58
660102250: svrsys.cpu.workload.drivers: [HanGuDriver]  HGKFD_IOC_ALLOC_MTT: vaddr: 0x767000, paddr: 0x2d6000 mtt_index 59
660102250: svrsys.cpu.workload.drivers: [HanGuDriver]  HGKFD_IOC_ALLOC_MTT: vaddr: 0x769000, paddr: 0x2d8000 mtt_index 60
660102250: svrsys.cpu.workload.drivers: [HanGuDriver]  HGKFD_IOC_ALLOC_MTT: vaddr: 0x76b000, paddr: 0x2da000 mtt_index 61
660102250: svrsys.cpu.workload.drivers: [HanGuDriver]  HGKFD_IOC_ALLOC_MTT: vaddr: 0x76d000, paddr: 0x2dc000 mtt_index 62
660102250: svrsys.cpu.workload.drivers: [HanGuDriver]  HGKFD_IOC_ALLOC_MTT: vaddr: 0x76f000, paddr: 0x2de000 mtt_index 63
660102250: svrsys.cpu.workload.drivers: [HanGuDriver]  HGKFD_IOC_ALLOC_MTT: vaddr: 0x771000, paddr: 0x2e0000 mtt_index 64
660102250: svrsys.cpu.workload.drivers: [HanGuDriver]  HGKFD_IOC_ALLOC_MTT: vaddr: 0x773000, paddr: 0x2e2000 mtt_index 65
660102250: svrsys.cpu.workload.drivers: [HanGuDriver]  HGKFD_IOC_ALLOC_MTT: vaddr: 0x775000, paddr: 0x2e4000 mtt_index 66
660102250: svrsys.cpu.workload.drivers: [HanGuDriver]  HGKFD_IOC_ALLOC_MTT: vaddr: 0x777000, paddr: 0x2e6000 mtt_index 67
660102250: svrsys.cpu.workload.drivers: [HanGuDriver]  HGKFD_IOC_ALLOC_MTT: vaddr: 0x779000, paddr: 0x2e8000 mtt_index 68
660102250: svrsys.cpu.workload.drivers: [HanGuDriver]  HGKFD_IOC_ALLOC_MTT: vaddr: 0x77b000, paddr: 0x2ea000 mtt_index 69
660102250: svrsys.cpu.workload.drivers: [HanGuDriver]  HGKFD_IOC_ALLOC_MTT: vaddr: 0x77d000, paddr: 0x2ec000 mtt_index 70
660102250: svrsys.cpu.workload.drivers: [HanGuDriver]  HGKFD_IOC_ALLOC_MTT: vaddr: 0x77f000, paddr: 0x2ee000 mtt_index 71
660102250: svrsys.cpu.workload.drivers: [HanGuDriver]  HGKFD_IOC_ALLOC_MTT: vaddr: 0x781000, paddr: 0x2f0000 mtt_index 72
660102250: svrsys.cpu.workload.drivers: [HanGuDriver]  HGKFD_IOC_ALLOC_MTT: vaddr: 0x783000, paddr: 0x2f2000 mtt_index 73
660102250: svrsys.cpu.workload.drivers: [HanGuDriver]  HGKFD_IOC_ALLOC_MTT: vaddr: 0x785000, paddr: 0x2f4000 mtt_index 74
660102250: svrsys.cpu.workload.drivers: [HanGuDriver]  HGKFD_IOC_ALLOC_MTT: vaddr: 0x787000, paddr: 0x2f6000 mtt_index 75
660102250: svrsys.cpu.workload.drivers: [HanGuDriver]  HGKFD_IOC_ALLOC_MTT: vaddr: 0x789000, paddr: 0x2f8000 mtt_index 76
660102250: svrsys.cpu.workload.drivers: [HanGuDriver]  HGKFD_IOC_ALLOC_MTT: vaddr: 0x78b000, paddr: 0x2fa000 mtt_index 77
660102250: svrsys.cpu.workload.drivers: [HanGuDriver]  HGKFD_IOC_ALLOC_MTT: vaddr: 0x78d000, paddr: 0x2fc000 mtt_index 78
660102250: svrsys.cpu.workload.drivers: [HanGuDriver]  HGKFD_IOC_ALLOC_MTT: vaddr: 0x78f000, paddr: 0x2fe000 mtt_index 79
660102250: svrsys.cpu.workload.drivers: [HanGuDriver]  HGKFD_IOC_ALLOC_MTT: vaddr: 0x791000, paddr: 0x300000 mtt_index 80
660102250: svrsys.cpu.workload.drivers: [HanGuDriver]  HGKFD_IOC_ALLOC_MTT: vaddr: 0x793000, paddr: 0x302000 mtt_index 81
660102250: svrsys.cpu.workload.drivers: [HanGuDriver]  HGKFD_IOC_ALLOC_MTT: vaddr: 0x795000, paddr: 0x304000 mtt_index 82
660102250: svrsys.cpu.workload.drivers: [HanGuDriver]  HGKFD_IOC_ALLOC_MTT: vaddr: 0x797000, paddr: 0x306000 mtt_index 83
660102250: svrsys.cpu.workload.drivers: [HanGuDriver]  HGKFD_IOC_ALLOC_MTT: vaddr: 0x799000, paddr: 0x308000 mtt_index 84
660102250: svrsys.cpu.workload.drivers: [HanGuDriver]  HGKFD_IOC_ALLOC_MTT: vaddr: 0x79b000, paddr: 0x30a000 mtt_index 85
660102250: svrsys.cpu.workload.drivers: [HanGuDriver]  HGKFD_IOC_ALLOC_MTT: vaddr: 0x79d000, paddr: 0x30c000 mtt_index 86
660102250: svrsys.cpu.workload.drivers: [HanGuDriver]  HGKFD_IOC_ALLOC_MTT: vaddr: 0x79f000, paddr: 0x30e000 mtt_index 87
660102250: svrsys.cpu.workload.drivers: [HanGuDriver]  HGKFD_IOC_ALLOC_MTT: vaddr: 0x7a1000, paddr: 0x310000 mtt_index 88
660102250: svrsys.cpu.workload.drivers: [HanGuDriver]  HGKFD_IOC_ALLOC_MTT: vaddr: 0x7a3000, paddr: 0x312000 mtt_index 89
660102250: svrsys.cpu.workload.drivers: [HanGuDriver]  HGKFD_IOC_ALLOC_MTT: vaddr: 0x7a5000, paddr: 0x314000 mtt_index 90
660102250: svrsys.cpu.workload.drivers: [HanGuDriver]  HGKFD_IOC_ALLOC_MTT: vaddr: 0x7a7000, paddr: 0x316000 mtt_index 91
660102250: svrsys.cpu.workload.drivers: [HanGuDriver]  HGKFD_IOC_ALLOC_MTT: vaddr: 0x7a9000, paddr: 0x318000 mtt_index 92
660102250: svrsys.cpu.workload.drivers: [HanGuDriver]  HGKFD_IOC_ALLOC_MTT: vaddr: 0x7ab000, paddr: 0x31a000 mtt_index 93
660102250: svrsys.cpu.workload.drivers: [HanGuDriver]  HGKFD_IOC_ALLOC_MTT: vaddr: 0x7ad000, paddr: 0x31c000 mtt_index 94
660102250: svrsys.cpu.workload.drivers: [HanGuDriver]  HGKFD_IOC_ALLOC_MTT: vaddr: 0x7af000, paddr: 0x31e000 mtt_index 95
660102250: svrsys.cpu.workload.drivers: [HanGuDriver]  HGKFD_IOC_ALLOC_MTT: vaddr: 0x7b1000, paddr: 0x320000 mtt_index 96
660102250: svrsys.cpu.workload.drivers: [HanGuDriver]  HGKFD_IOC_ALLOC_MTT: vaddr: 0x7b3000, paddr: 0x322000 mtt_index 97
660102250: svrsys.cpu.workload.drivers: [HanGuDriver]  HGKFD_IOC_ALLOC_MTT: vaddr: 0x7b5000, paddr: 0x324000 mtt_index 98
660102250: svrsys.cpu.workload.drivers: [HanGuDriver]  HGKFD_IOC_ALLOC_MTT: vaddr: 0x7b7000, paddr: 0x326000 mtt_index 99
660102250: svrsys.cpu.workload.drivers: [HanGuDriver]  HGKFD_IOC_ALLOC_MTT: vaddr: 0x7b9000, paddr: 0x328000 mtt_index 100
660102250: svrsys.cpu.workload.drivers: [HanGuDriver]  HGKFD_IOC_ALLOC_MTT: vaddr: 0x7bb000, paddr: 0x32a000 mtt_index 101
660102250: svrsys.cpu.workload.drivers: [HanGuDriver]  HGKFD_IOC_ALLOC_MTT: vaddr: 0x7bd000, paddr: 0x32c000 mtt_index 102
660102250: svrsys.cpu.workload.drivers: [HanGuDriver]  HGKFD_IOC_ALLOC_MTT: vaddr: 0x7bf000, paddr: 0x32e000 mtt_index 103
660102250: svrsys.cpu.workload.drivers: [HanGuDriver]  HGKFD_IOC_ALLOC_MTT: vaddr: 0x7c1000, paddr: 0x330000 mtt_index 104
660102250: svrsys.cpu.workload.drivers: [HanGuDriver]  HGKFD_IOC_ALLOC_MTT: vaddr: 0x7c3000, paddr: 0x332000 mtt_index 105
660102250: svrsys.cpu.workload.drivers: [HanGuDriver]  HGKFD_IOC_ALLOC_MTT: vaddr: 0x7c5000, paddr: 0x335000 mtt_index 106
660102250: svrsys.cpu.workload.drivers: [HanGuDriver]  HGKFD_IOC_ALLOC_MTT: vaddr: 0x7c7000, paddr: 0x337000 mtt_index 107
660102250: svrsys.cpu.workload.drivers: [HanGuDriver]  HGKFD_IOC_ALLOC_MTT: vaddr: 0x7c9000, paddr: 0x339000 mtt_index 108
660102250: svrsys.cpu.workload.drivers: [HanGuDriver]  HGKFD_IOC_ALLOC_MTT: vaddr: 0x7cb000, paddr: 0x33b000 mtt_index 109
660102250: svrsys.cpu.workload.drivers: [HanGuDriver]  HGKFD_IOC_ALLOC_MTT: vaddr: 0x7cd000, paddr: 0x33d000 mtt_index 110
660102250: svrsys.cpu.workload.drivers: [HanGuDriver]  HGKFD_IOC_ALLOC_MTT: vaddr: 0x7cf000, paddr: 0x33f000 mtt_index 111
660102250: svrsys.cpu.workload.drivers: [HanGuDriver]  HGKFD_IOC_ALLOC_MTT: vaddr: 0x7d1000, paddr: 0x341000 mtt_index 112
660102250: svrsys.cpu.workload.drivers: [HanGuDriver]  HGKFD_IOC_ALLOC_MTT: vaddr: 0x7d3000, paddr: 0x343000 mtt_index 113
660102250: svrsys.cpu.workload.drivers: [HanGuDriver]  HGKFD_IOC_ALLOC_MTT: vaddr: 0x7d5000, paddr: 0x345000 mtt_index 114
660102250: svrsys.cpu.workload.drivers: [HanGuDriver]  HGKFD_IOC_ALLOC_MTT: vaddr: 0x7d7000, paddr: 0x347000 mtt_index 115
660102250: svrsys.cpu.workload.drivers: [HanGuDriver]  HGKFD_IOC_ALLOC_MTT: vaddr: 0x7d9000, paddr: 0x34a000 mtt_index 116
660102250: svrsys.cpu.workload.drivers: [HanGuDriver]  HGKFD_IOC_ALLOC_MTT: vaddr: 0x7db000, paddr: 0x34c000 mtt_index 117
660102250: svrsys.cpu.workload.drivers: [HanGuDriver]  HGKFD_IOC_ALLOC_MTT: vaddr: 0x7dd000, paddr: 0x34e000 mtt_index 118
660102250: svrsys.cpu.workload.drivers: [HanGuDriver]  HGKFD_IOC_ALLOC_MTT: vaddr: 0x7df000, paddr: 0x350000 mtt_index 119
660102250: svrsys.cpu.workload.drivers: [HanGuDriver]  HGKFD_IOC_ALLOC_MTT: vaddr: 0x7e1000, paddr: 0x352000 mtt_index 120
660102250: svrsys.cpu.workload.drivers: [HanGuDriver]  HGKFD_IOC_ALLOC_MTT: vaddr: 0x7e3000, paddr: 0x354000 mtt_index 121
660102250: svrsys.cpu.workload.drivers: [HanGuDriver]  HGKFD_IOC_ALLOC_MTT: vaddr: 0x7e5000, paddr: 0x356000 mtt_index 122
660102250: svrsys.cpu.workload.drivers: [HanGuDriver]  HGKFD_IOC_ALLOC_MTT: vaddr: 0x7e7000, paddr: 0x358000 mtt_index 123
660102250: svrsys.cpu.workload.drivers: [HanGuDriver]  HGKFD_IOC_ALLOC_MTT: vaddr: 0x7e9000, paddr: 0x35a000 mtt_index 124
660102250: svrsys.cpu.workload.drivers: [HanGuDriver]  HGKFD_IOC_ALLOC_MTT: vaddr: 0x7eb000, paddr: 0x35c000 mtt_index 125
660102250: svrsys.cpu.workload.drivers: [HanGuDriver]  HGKFD_IOC_ALLOC_MTT: vaddr: 0x7ed000, paddr: 0x35e000 mtt_index 126
660102250: svrsys.cpu.workload.drivers: [HanGuDriver]  HGKFD_IOC_ALLOC_MTT: vaddr: 0x7ef000, paddr: 0x360000 mtt_index 127
660102250: svrsys.cpu.workload.drivers: [HanGuDriver]  HGKFD_IOC_ALLOC_MTT: vaddr: 0x7f1000, paddr: 0x362000 mtt_index 128
660102250: svrsys.cpu.workload.drivers: [HanGuDriver]  HGKFD_IOC_ALLOC_MTT: vaddr: 0x7f3000, paddr: 0x364000 mtt_index 129
660102250: svrsys.cpu.workload.drivers: [HanGuDriver]  HGKFD_IOC_ALLOC_MTT: vaddr: 0x7f5000, paddr: 0x366000 mtt_index 130
660102250: svrsys.cpu.workload.drivers: [HanGuDriver]  HGKFD_IOC_ALLOC_MTT: vaddr: 0x7f7000, paddr: 0x368000 mtt_index 131
660102250: svrsys.cpu.workload.drivers: [HanGuDriver]  HGKFD_IOC_ALLOC_MTT: vaddr: 0x7f9000, paddr: 0x36a000 mtt_index 132
660102250: svrsys.cpu.workload.drivers: [HanGuDriver]  HGKFD_IOC_ALLOC_MTT: vaddr: 0x7fb000, paddr: 0x36c000 mtt_index 133
660102250: svrsys.cpu.workload.drivers: [HanGuDriver]  HGKFD_IOC_ALLOC_MTT: vaddr: 0x7fd000, paddr: 0x36e000 mtt_index 134
660102250: svrsys.cpu.workload.drivers: [HanGuDriver]  HGKFD_IOC_ALLOC_MTT: vaddr: 0x7ff000, paddr: 0x370000 mtt_index 135
660102250: svrsys.cpu.workload.drivers: [HanGuDriver]  HGKFD_IOC_ALLOC_MTT: vaddr: 0x801000, paddr: 0x372000 mtt_index 136
660102250: svrsys.cpu.workload.drivers: [HanGuDriver]  HGKFD_IOC_ALLOC_MTT: vaddr: 0x803000, paddr: 0x374000 mtt_index 137
660102250: svrsys.cpu.workload.drivers: [HanGuDriver]  HGKFD_IOC_ALLOC_MTT: vaddr: 0x805000, paddr: 0x376000 mtt_index 138
660102250: svrsys.cpu.workload.drivers: [HanGuDriver]  HGKFD_IOC_ALLOC_MTT: vaddr: 0x807000, paddr: 0x378000 mtt_index 139
660102250: svrsys.cpu.workload.drivers: [HanGuDriver]  HGKFD_IOC_ALLOC_MTT: vaddr: 0x809000, paddr: 0x37a000 mtt_index 140
660102250: svrsys.cpu.workload.drivers: [HanGuDriver]  HGKFD_IOC_ALLOC_MTT: vaddr: 0x80b000, paddr: 0x37c000 mtt_index 141
660102250: svrsys.cpu.workload.drivers: [HanGuDriver]  HGKFD_IOC_ALLOC_MTT: vaddr: 0x80d000, paddr: 0x37e000 mtt_index 142
660102250: svrsys.cpu.workload.drivers: [HanGuDriver]  HGKFD_IOC_ALLOC_MTT: vaddr: 0x80f000, paddr: 0x380000 mtt_index 143
660102250: svrsys.cpu.workload.drivers: [HanGuDriver]  HGKFD_IOC_ALLOC_MTT: vaddr: 0x811000, paddr: 0x382000 mtt_index 144
660102250: svrsys.cpu.workload.drivers: [HanGuDriver]  HGKFD_IOC_ALLOC_MTT: vaddr: 0x813000, paddr: 0x384000 mtt_index 145
660102250: svrsys.cpu.workload.drivers: [HanGuDriver]  HGKFD_IOC_ALLOC_MTT: vaddr: 0x815000, paddr: 0x386000 mtt_index 146
660102250: svrsys.cpu.workload.drivers: [HanGuDriver]  HGKFD_IOC_ALLOC_MTT: vaddr: 0x817000, paddr: 0x388000 mtt_index 147
660102250: svrsys.cpu.workload.drivers: [HanGuDriver]  HGKFD_IOC_ALLOC_MTT: vaddr: 0x819000, paddr: 0x38a000 mtt_index 148
660102250: svrsys.cpu.workload.drivers: [HanGuDriver]  HGKFD_IOC_ALLOC_MTT: vaddr: 0x81b000, paddr: 0x38c000 mtt_index 149
660102250: svrsys.cpu.workload.drivers: [HanGuDriver]  HGKFD_IOC_ALLOC_MTT: vaddr: 0x81d000, paddr: 0x38e000 mtt_index 150
660102250: svrsys.cpu.workload.drivers: [HanGuDriver]  HGKFD_IOC_ALLOC_MTT: vaddr: 0x81f000, paddr: 0x390000 mtt_index 151
660102250: svrsys.cpu.workload.drivers: [HanGuDriver]  HGKFD_IOC_ALLOC_MTT: vaddr: 0x821000, paddr: 0x392000 mtt_index 152
660102250: svrsys.cpu.workload.drivers: [HanGuDriver]  HGKFD_IOC_ALLOC_MTT: vaddr: 0x823000, paddr: 0x394000 mtt_index 153
660102250: svrsys.cpu.workload.drivers: [HanGuDriver]  HGKFD_IOC_ALLOC_MTT: vaddr: 0x825000, paddr: 0x396000 mtt_index 154
660102250: svrsys.cpu.workload.drivers: [HanGuDriver]  HGKFD_IOC_ALLOC_MTT: vaddr: 0x827000, paddr: 0x398000 mtt_index 155
660102250: svrsys.cpu.workload.drivers: [HanGuDriver]  HGKFD_IOC_ALLOC_MTT: vaddr: 0x829000, paddr: 0x39a000 mtt_index 156
660102250: svrsys.cpu.workload.drivers: [HanGuDriver]  HGKFD_IOC_ALLOC_MTT: vaddr: 0x82b000, paddr: 0x39c000 mtt_index 157
660102250: svrsys.cpu.workload.drivers: [HanGuDriver]  HGKFD_IOC_ALLOC_MTT: vaddr: 0x82d000, paddr: 0x39e000 mtt_index 158
660102250: svrsys.cpu.workload.drivers: [HanGuDriver]  HGKFD_IOC_ALLOC_MTT: vaddr: 0x82f000, paddr: 0x3a0000 mtt_index 159
660102250: svrsys.cpu.workload.drivers: [HanGuDriver]  HGKFD_IOC_ALLOC_MTT: vaddr: 0x831000, paddr: 0x3a2000 mtt_index 160
660102250: svrsys.cpu.workload.drivers: [HanGuDriver]  HGKFD_IOC_ALLOC_MTT: vaddr: 0x833000, paddr: 0x3a4000 mtt_index 161
660102250: svrsys.cpu.workload.drivers: [HanGuDriver]  HGKFD_IOC_ALLOC_MTT: vaddr: 0x835000, paddr: 0x3a6000 mtt_index 162
660102250: svrsys.cpu.workload.drivers: [HanGuDriver]  HGKFD_IOC_ALLOC_MTT: vaddr: 0x837000, paddr: 0x3a8000 mtt_index 163
660102250: svrsys.cpu.workload.drivers: [HanGuDriver]  HGKFD_IOC_ALLOC_MTT: vaddr: 0x839000, paddr: 0x3aa000 mtt_index 164
660102250: svrsys.cpu.workload.drivers: [HanGuDriver]  HGKFD_IOC_ALLOC_MTT: vaddr: 0x83b000, paddr: 0x3ac000 mtt_index 165
660102250: svrsys.cpu.workload.drivers: [HanGuDriver]  HGKFD_IOC_ALLOC_MTT: vaddr: 0x83d000, paddr: 0x3ae000 mtt_index 166
660102250: svrsys.cpu.workload.drivers: [HanGuDriver]  HGKFD_IOC_ALLOC_MTT: vaddr: 0x83f000, paddr: 0x3b0000 mtt_index 167
660102250: svrsys.cpu.workload.drivers: [HanGuDriver]  HGKFD_IOC_ALLOC_MTT: vaddr: 0x841000, paddr: 0x3b2000 mtt_index 168
660102250: svrsys.cpu.workload.drivers: [HanGuDriver]  HGKFD_IOC_ALLOC_MTT: vaddr: 0x843000, paddr: 0x3b4000 mtt_index 169
660102250: svrsys.cpu.workload.drivers: [HanGuDriver]  HGKFD_IOC_ALLOC_MTT: vaddr: 0x845000, paddr: 0x3b6000 mtt_index 170
660102250: svrsys.cpu.workload.drivers: [HanGuDriver]  HGKFD_IOC_ALLOC_MTT: vaddr: 0x847000, paddr: 0x3b8000 mtt_index 171
660102250: svrsys.cpu.workload.drivers: [HanGuDriver]  HGKFD_IOC_ALLOC_MTT: vaddr: 0x849000, paddr: 0x3ba000 mtt_index 172
660102250: svrsys.cpu.workload.drivers: [HanGuDriver]  HGKFD_IOC_ALLOC_MTT: vaddr: 0x84b000, paddr: 0x3bc000 mtt_index 173
660102250: svrsys.cpu.workload.drivers: [HanGuDriver]  HGKFD_IOC_ALLOC_MTT: vaddr: 0x84d000, paddr: 0x3be000 mtt_index 174
660102250: svrsys.cpu.workload.drivers: [HanGuDriver]  HGKFD_IOC_ALLOC_MTT: vaddr: 0x84f000, paddr: 0x3c0000 mtt_index 175
660102250: svrsys.cpu.workload.drivers: [HanGuDriver]  HGKFD_IOC_ALLOC_MTT: vaddr: 0x851000, paddr: 0x3c2000 mtt_index 176
660102250: svrsys.cpu.workload.drivers: [HanGuDriver]  HGKFD_IOC_ALLOC_MTT: vaddr: 0x853000, paddr: 0x3c4000 mtt_index 177
660102250: svrsys.cpu.workload.drivers: [HanGuDriver]  HGKFD_IOC_ALLOC_MTT: vaddr: 0x855000, paddr: 0x3c6000 mtt_index 178
660102250: svrsys.cpu.workload.drivers: [HanGuDriver]  HGKFD_IOC_ALLOC_MTT: vaddr: 0x857000, paddr: 0x3c8000 mtt_index 179
660102250: svrsys.cpu.workload.drivers: [HanGuDriver]  HGKFD_IOC_ALLOC_MTT: vaddr: 0x859000, paddr: 0x3ca000 mtt_index 180
660102250: svrsys.cpu.workload.drivers: [HanGuDriver]  HGKFD_IOC_ALLOC_MTT: vaddr: 0x85b000, paddr: 0x3cc000 mtt_index 181
660102250: svrsys.cpu.workload.drivers: [HanGuDriver]  HGKFD_IOC_ALLOC_MTT: vaddr: 0x85d000, paddr: 0x3ce000 mtt_index 182
660102250: svrsys.cpu.workload.drivers: [HanGuDriver]  HGKFD_IOC_ALLOC_MTT: vaddr: 0x85f000, paddr: 0x3d0000 mtt_index 183
660102250: svrsys.cpu.workload.drivers: [HanGuDriver]  HGKFD_IOC_ALLOC_MTT: vaddr: 0x861000, paddr: 0x3d2000 mtt_index 184
660102250: svrsys.cpu.workload.drivers: [HanGuDriver]  HGKFD_IOC_ALLOC_MTT: vaddr: 0x863000, paddr: 0x3d4000 mtt_index 185
660102250: svrsys.cpu.workload.drivers: [HanGuDriver]  HGKFD_IOC_ALLOC_MTT: vaddr: 0x865000, paddr: 0x3d6000 mtt_index 186
660102250: svrsys.cpu.workload.drivers: [HanGuDriver]  HGKFD_IOC_ALLOC_MTT: vaddr: 0x867000, paddr: 0x3d8000 mtt_index 187
660102250: svrsys.cpu.workload.drivers: [HanGuDriver]  HGKFD_IOC_ALLOC_MTT: vaddr: 0x869000, paddr: 0x3da000 mtt_index 188
660102250: svrsys.cpu.workload.drivers: [HanGuDriver]  HGKFD_IOC_ALLOC_MTT: vaddr: 0x86b000, paddr: 0x3dc000 mtt_index 189
660102250: svrsys.cpu.workload.drivers: [HanGuDriver]  HGKFD_IOC_ALLOC_MTT: vaddr: 0x86d000, paddr: 0x3de000 mtt_index 190
660102250: svrsys.cpu.workload.drivers: [HanGuDriver]  HGKFD_IOC_ALLOC_MTT: vaddr: 0x86f000, paddr: 0x3e0000 mtt_index 191
660102250: svrsys.cpu.workload.drivers: [HanGuDriver]  HGKFD_IOC_ALLOC_MTT: vaddr: 0x871000, paddr: 0x3e2000 mtt_index 192
660102250: svrsys.cpu.workload.drivers: [HanGuDriver]  HGKFD_IOC_ALLOC_MTT: vaddr: 0x873000, paddr: 0x3e4000 mtt_index 193
660102250: svrsys.cpu.workload.drivers: [HanGuDriver]  HGKFD_IOC_ALLOC_MTT: vaddr: 0x875000, paddr: 0x3e6000 mtt_index 194
660102250: svrsys.cpu.workload.drivers: [HanGuDriver]  HGKFD_IOC_ALLOC_MTT: vaddr: 0x877000, paddr: 0x3e8000 mtt_index 195
660102250: svrsys.cpu.workload.drivers: [HanGuDriver]  HGKFD_IOC_ALLOC_MTT: vaddr: 0x879000, paddr: 0x3ea000 mtt_index 196
660102250: svrsys.cpu.workload.drivers: [HanGuDriver]  HGKFD_IOC_ALLOC_MTT: vaddr: 0x87b000, paddr: 0x3ec000 mtt_index 197
660102250: svrsys.cpu.workload.drivers: [HanGuDriver]  HGKFD_IOC_ALLOC_MTT: vaddr: 0x87d000, paddr: 0x3ee000 mtt_index 198
660102250: svrsys.cpu.workload.drivers: [HanGuDriver]  HGKFD_IOC_ALLOC_MTT: vaddr: 0x87f000, paddr: 0x3f0000 mtt_index 199
660102250: svrsys.cpu.workload.drivers: [HanGuDriver]  HGKFD_IOC_ALLOC_MTT: vaddr: 0x881000, paddr: 0x3f2000 mtt_index 200
660102250: svrsys.cpu.workload.drivers: [HanGuDriver]  HGKFD_IOC_ALLOC_MTT: vaddr: 0x883000, paddr: 0x3f5000 mtt_index 201
660102250: svrsys.cpu.workload.drivers: [HanGuDriver]  HGKFD_IOC_ALLOC_MTT: vaddr: 0x885000, paddr: 0x3f7000 mtt_index 202
660102250: svrsys.cpu.workload.drivers: [HanGuDriver]  HGKFD_IOC_ALLOC_MTT: vaddr: 0x887000, paddr: 0x3f9000 mtt_index 203
660102250: svrsys.cpu.workload.drivers: [HanGuDriver]  HGKFD_IOC_ALLOC_MTT: vaddr: 0x889000, paddr: 0x3fb000 mtt_index 204
660102250: svrsys.cpu.workload.drivers: [HanGuDriver]  HGKFD_IOC_ALLOC_MTT: vaddr: 0x88b000, paddr: 0x3fd000 mtt_index 205
660102250: svrsys.cpu.workload.drivers: [HanGuDriver]  HGKFD_IOC_ALLOC_MTT: vaddr: 0x88d000, paddr: 0x3ff000 mtt_index 206
660102250: svrsys.cpu.workload.drivers: [HanGuDriver]  HGKFD_IOC_ALLOC_MTT: vaddr: 0x88f000, paddr: 0x401000 mtt_index 207
660102250: svrsys.cpu.workload.drivers: [HanGuDriver]  HGKFD_IOC_ALLOC_MTT: vaddr: 0x891000, paddr: 0x403000 mtt_index 208
660102250: svrsys.cpu.workload.drivers: [HanGuDriver]  HGKFD_IOC_ALLOC_MTT: vaddr: 0x893000, paddr: 0x405000 mtt_index 209
660102250: svrsys.cpu.workload.drivers: [HanGuDriver]  HGKFD_IOC_ALLOC_MTT: vaddr: 0x895000, paddr: 0x407000 mtt_index 210
660102250: svrsys.cpu.workload.drivers: [HanGuDriver]  HGKFD_IOC_ALLOC_MTT: vaddr: 0x897000, paddr: 0x409000 mtt_index 211
660102250: svrsys.cpu.workload.drivers: [HanGuDriver]  HGKFD_IOC_ALLOC_MTT: vaddr: 0x899000, paddr: 0x40b000 mtt_index 212
660102250: svrsys.cpu.workload.drivers: [HanGuDriver]  HGKFD_IOC_ALLOC_MTT: vaddr: 0x89b000, paddr: 0x40d000 mtt_index 213
660102250: svrsys.cpu.workload.drivers: [HanGuDriver]  HGKFD_IOC_ALLOC_MTT: vaddr: 0x89d000, paddr: 0x40f000 mtt_index 214
660102250: svrsys.cpu.workload.drivers: [HanGuDriver]  HGKFD_IOC_ALLOC_MTT: vaddr: 0x89f000, paddr: 0x411000 mtt_index 215
660102250: svrsys.cpu.workload.drivers: [HanGuDriver]  HGKFD_IOC_ALLOC_MTT: vaddr: 0x8a1000, paddr: 0x413000 mtt_index 216
660102250: svrsys.cpu.workload.drivers: [HanGuDriver]  HGKFD_IOC_ALLOC_MTT: vaddr: 0x8a3000, paddr: 0x415000 mtt_index 217
660102250: svrsys.cpu.workload.drivers: [HanGuDriver]  HGKFD_IOC_ALLOC_MTT: vaddr: 0x8a5000, paddr: 0x417000 mtt_index 218
660102250: svrsys.cpu.workload.drivers: [HanGuDriver]  HGKFD_IOC_ALLOC_MTT: vaddr: 0x8a7000, paddr: 0x419000 mtt_index 219
660102250: svrsys.cpu.workload.drivers: [HanGuDriver]  HGKFD_IOC_ALLOC_MTT: vaddr: 0x8a9000, paddr: 0x41b000 mtt_index 220
660102250: svrsys.cpu.workload.drivers: [HanGuDriver]  HGKFD_IOC_ALLOC_MTT: vaddr: 0x8ab000, paddr: 0x41d000 mtt_index 221
660102250: svrsys.cpu.workload.drivers: [HanGuDriver]  HGKFD_IOC_ALLOC_MTT: vaddr: 0x8ad000, paddr: 0x41f000 mtt_index 222
660102250: svrsys.cpu.workload.drivers: [HanGuDriver]  HGKFD_IOC_ALLOC_MTT: vaddr: 0x8af000, paddr: 0x421000 mtt_index 223
660102250: svrsys.cpu.workload.drivers: [HanGuDriver]  HGKFD_IOC_ALLOC_MTT: vaddr: 0x8b1000, paddr: 0x423000 mtt_index 224
660102250: svrsys.cpu.workload.drivers: [HanGuDriver]  HGKFD_IOC_ALLOC_MTT: vaddr: 0x8b3000, paddr: 0x425000 mtt_index 225
660102250: svrsys.cpu.workload.drivers: [HanGuDriver]  HGKFD_IOC_ALLOC_MTT: vaddr: 0x8b5000, paddr: 0x427000 mtt_index 226
660102250: svrsys.cpu.workload.drivers: [HanGuDriver]  HGKFD_IOC_ALLOC_MTT: vaddr: 0x8b7000, paddr: 0x429000 mtt_index 227
660102250: svrsys.cpu.workload.drivers: [HanGuDriver]  HGKFD_IOC_ALLOC_MTT: vaddr: 0x8b9000, paddr: 0x42b000 mtt_index 228
660102250: svrsys.cpu.workload.drivers: [HanGuDriver]  HGKFD_IOC_ALLOC_MTT: vaddr: 0x8bb000, paddr: 0x42d000 mtt_index 229
660102250: svrsys.cpu.workload.drivers: [HanGuDriver]  HGKFD_IOC_ALLOC_MTT: vaddr: 0x8bd000, paddr: 0x42f000 mtt_index 230
660102250: svrsys.cpu.workload.drivers: [HanGuDriver]  HGKFD_IOC_ALLOC_MTT: vaddr: 0x8bf000, paddr: 0x431000 mtt_index 231
660102250: svrsys.cpu.workload.drivers: [HanGuDriver]  HGKFD_IOC_ALLOC_MTT: vaddr: 0x8c1000, paddr: 0x433000 mtt_index 232
660102250: svrsys.cpu.workload.drivers: [HanGuDriver]  HGKFD_IOC_ALLOC_MTT: vaddr: 0x8c3000, paddr: 0x435000 mtt_index 233
660102250: svrsys.cpu.workload.drivers: [HanGuDriver]  HGKFD_IOC_ALLOC_MTT: vaddr: 0x8c5000, paddr: 0x437000 mtt_index 234
660102250: svrsys.cpu.workload.drivers: [HanGuDriver]  HGKFD_IOC_ALLOC_MTT: vaddr: 0x8c7000, paddr: 0x439000 mtt_index 235
660102250: svrsys.cpu.workload.drivers: [HanGuDriver]  HGKFD_IOC_ALLOC_MTT: vaddr: 0x8c9000, paddr: 0x43b000 mtt_index 236
660102250: svrsys.cpu.workload.drivers: [HanGuDriver]  HGKFD_IOC_ALLOC_MTT: vaddr: 0x8cb000, paddr: 0x43d000 mtt_index 237
660102250: svrsys.cpu.workload.drivers: [HanGuDriver]  HGKFD_IOC_ALLOC_MTT: vaddr: 0x8cd000, paddr: 0x43f000 mtt_index 238
660102250: svrsys.cpu.workload.drivers: [HanGuDriver]  HGKFD_IOC_ALLOC_MTT: vaddr: 0x8cf000, paddr: 0x441000 mtt_index 239
660102250: svrsys.cpu.workload.drivers: [HanGuDriver]  HGKFD_IOC_ALLOC_MTT: vaddr: 0x8d1000, paddr: 0x443000 mtt_index 240
660102250: svrsys.cpu.workload.drivers: [HanGuDriver]  HGKFD_IOC_ALLOC_MTT: vaddr: 0x8d3000, paddr: 0x445000 mtt_index 241
660102250: svrsys.cpu.workload.drivers: [HanGuDriver]  HGKFD_IOC_ALLOC_MTT: vaddr: 0x8d5000, paddr: 0x447000 mtt_index 242
660102250: svrsys.cpu.workload.drivers: [HanGuDriver]  HGKFD_IOC_ALLOC_MTT: vaddr: 0x8d7000, paddr: 0x449000 mtt_index 243
660102250: svrsys.cpu.workload.drivers: [HanGuDriver]  HGKFD_IOC_ALLOC_MTT: vaddr: 0x8d9000, paddr: 0x44b000 mtt_index 244
660102250: svrsys.cpu.workload.drivers: [HanGuDriver]  HGKFD_IOC_ALLOC_MTT: vaddr: 0x8db000, paddr: 0x44d000 mtt_index 245
660102250: svrsys.cpu.workload.drivers: [HanGuDriver]  HGKFD_IOC_ALLOC_MTT: vaddr: 0x8dd000, paddr: 0x44f000 mtt_index 246
660102250: svrsys.cpu.workload.drivers: [HanGuDriver]  HGKFD_IOC_ALLOC_MTT: vaddr: 0x8df000, paddr: 0x451000 mtt_index 247
660102250: svrsys.cpu.workload.drivers: [HanGuDriver]  HGKFD_IOC_ALLOC_MTT: vaddr: 0x8e1000, paddr: 0x453000 mtt_index 248
660102250: svrsys.cpu.workload.drivers: [HanGuDriver]  HGKFD_IOC_ALLOC_MTT: vaddr: 0x8e3000, paddr: 0x455000 mtt_index 249
660102250: svrsys.cpu.workload.drivers: [HanGuDriver]  HGKFD_IOC_ALLOC_MTT: vaddr: 0x8e5000, paddr: 0x457000 mtt_index 250
660102250: svrsys.cpu.workload.drivers: [HanGuDriver]  HGKFD_IOC_ALLOC_MTT: vaddr: 0x8e7000, paddr: 0x459000 mtt_index 251
660102250: svrsys.cpu.workload.drivers: [HanGuDriver]  HGKFD_IOC_ALLOC_MTT: vaddr: 0x8e9000, paddr: 0x45b000 mtt_index 252
660102250: svrsys.cpu.workload.drivers: [HanGuDriver]  HGKFD_IOC_ALLOC_MTT: vaddr: 0x8eb000, paddr: 0x45d000 mtt_index 253
660102250: svrsys.cpu.workload.drivers: [HanGuDriver]  HGKFD_IOC_ALLOC_MTT: vaddr: 0x8ed000, paddr: 0x45f000 mtt_index 254
660102250: svrsys.cpu.workload.drivers: [HanGuDriver]  HGKFD_IOC_ALLOC_MTT: vaddr: 0x8ef000, paddr: 0x461000 mtt_index 255
660102250: svrsys.cpu.workload.drivers: [HanGuDriver]  HGKFD_IOC_ALLOC_MTT: vaddr: 0x8f1000, paddr: 0x463000 mtt_index 256
660102250: svrsys.cpu.workload.drivers: [HanGuDriver]  HGKFD_IOC_ALLOC_MTT: vaddr: 0x8f3000, paddr: 0x465000 mtt_index 257
660102250: svrsys.cpu.workload.drivers: [HanGuDriver]  HGKFD_IOC_ALLOC_MTT: vaddr: 0x8f5000, paddr: 0x467000 mtt_index 258
660102250: svrsys.cpu.workload.drivers: [HanGuDriver]  HGKFD_IOC_ALLOC_MTT: vaddr: 0x8f7000, paddr: 0x469000 mtt_index 259
660102250: svrsys.cpu.workload.drivers: [HanGuDriver]  HGKFD_IOC_ALLOC_MTT: vaddr: 0x8f9000, paddr: 0x46b000 mtt_index 260
660102250: svrsys.cpu.workload.drivers: [HanGuDriver]  HGKFD_IOC_ALLOC_MTT: vaddr: 0x8fb000, paddr: 0x46d000 mtt_index 261
660102250: svrsys.cpu.workload.drivers: [HanGuDriver]  HGKFD_IOC_ALLOC_MTT: vaddr: 0x8fd000, paddr: 0x46f000 mtt_index 262
660102250: svrsys.cpu.workload.drivers: [HanGuDriver]  HGKFD_IOC_ALLOC_MTT: vaddr: 0x8ff000, paddr: 0x471000 mtt_index 263
660102250: svrsys.cpu.workload.drivers: [HanGuDriver]  HGKFD_IOC_ALLOC_MTT: vaddr: 0x901000, paddr: 0x473000 mtt_index 264
660102250: svrsys.cpu.workload.drivers: [HanGuDriver]  HGKFD_IOC_ALLOC_MTT: vaddr: 0x903000, paddr: 0x475000 mtt_index 265
660102250: svrsys.cpu.workload.drivers: [HanGuDriver]  HGKFD_IOC_ALLOC_MTT: vaddr: 0x905000, paddr: 0x477000 mtt_index 266
660102250: svrsys.cpu.workload.drivers: [HanGuDriver]  HGKFD_IOC_ALLOC_MTT: vaddr: 0x907000, paddr: 0x479000 mtt_index 267
660102250: svrsys.cpu.workload.drivers: [HanGuDriver]  HGKFD_IOC_ALLOC_MTT: vaddr: 0x909000, paddr: 0x47b000 mtt_index 268
660102250: svrsys.cpu.workload.drivers: [HanGuDriver]  HGKFD_IOC_ALLOC_MTT: vaddr: 0x90b000, paddr: 0x47d000 mtt_index 269
660102250: svrsys.cpu.workload.drivers: [HanGuDriver]  HGKFD_IOC_ALLOC_MTT: vaddr: 0x90d000, paddr: 0x47f000 mtt_index 270
660102250: svrsys.cpu.workload.drivers: [HanGuDriver]  HGKFD_IOC_ALLOC_MTT: vaddr: 0x90f000, paddr: 0x481000 mtt_index 271
660102250: svrsys.cpu.workload.drivers: [HanGuDriver]  HGKFD_IOC_ALLOC_MTT: vaddr: 0x911000, paddr: 0x483000 mtt_index 272
660102250: svrsys.cpu.workload.drivers: [HanGuDriver]  HGKFD_IOC_ALLOC_MTT: vaddr: 0x913000, paddr: 0x485000 mtt_index 273
660102250: svrsys.cpu.workload.drivers: [HanGuDriver]  HGKFD_IOC_ALLOC_MTT: vaddr: 0x915000, paddr: 0x487000 mtt_index 274
660102250: svrsys.cpu.workload.drivers: [HanGuDriver]  HGKFD_IOC_ALLOC_MTT: vaddr: 0x917000, paddr: 0x489000 mtt_index 275
660102250: svrsys.cpu.workload.drivers: [HanGuDriver]  HGKFD_IOC_ALLOC_MTT: vaddr: 0x919000, paddr: 0x48b000 mtt_index 276
660102250: svrsys.cpu.workload.drivers: [HanGuDriver]  HGKFD_IOC_ALLOC_MTT: vaddr: 0x91b000, paddr: 0x48d000 mtt_index 277
660102250: svrsys.cpu.workload.drivers: [HanGuDriver]  HGKFD_IOC_ALLOC_MTT: vaddr: 0x91d000, paddr: 0x48f000 mtt_index 278
660102250: svrsys.cpu.workload.drivers: [HanGuDriver]  HGKFD_IOC_ALLOC_MTT: vaddr: 0x91f000, paddr: 0x491000 mtt_index 279
660102250: svrsys.cpu.workload.drivers: [HanGuDriver]  HGKFD_IOC_ALLOC_MTT: vaddr: 0x921000, paddr: 0x493000 mtt_index 280
660102250: svrsys.cpu.workload.drivers: [HanGuDriver]  HGKFD_IOC_ALLOC_MTT: vaddr: 0x923000, paddr: 0x495000 mtt_index 281
660102250: svrsys.cpu.workload.drivers: [HanGuDriver]  HGKFD_IOC_ALLOC_MTT: vaddr: 0x925000, paddr: 0x497000 mtt_index 282
660102250: svrsys.cpu.workload.drivers: [HanGuDriver]  HGKFD_IOC_ALLOC_MTT: vaddr: 0x927000, paddr: 0x499000 mtt_index 283
660102250: svrsys.cpu.workload.drivers: [HanGuDriver]  HGKFD_IOC_ALLOC_MTT: vaddr: 0x929000, paddr: 0x49b000 mtt_index 284
660102250: svrsys.cpu.workload.drivers: [HanGuDriver]  HGKFD_IOC_ALLOC_MTT: vaddr: 0x92b000, paddr: 0x49d000 mtt_index 285
660102250: svrsys.cpu.workload.drivers: [HanGuDriver]  HGKFD_IOC_ALLOC_MTT: vaddr: 0x92d000, paddr: 0x49f000 mtt_index 286
660102250: svrsys.cpu.workload.drivers: [HanGuDriver]  HGKFD_IOC_ALLOC_MTT: vaddr: 0x92f000, paddr: 0x4a2000 mtt_index 287
660102250: svrsys.cpu.workload.drivers: [HanGuDriver]  HGKFD_IOC_ALLOC_MTT: vaddr: 0x931000, paddr: 0x4a4000 mtt_index 288
660102250: svrsys.cpu.workload.drivers: [HanGuDriver]  HGKFD_IOC_ALLOC_MTT: vaddr: 0x933000, paddr: 0x4a6000 mtt_index 289
660102250: svrsys.cpu.workload.drivers: [HanGuDriver]  HGKFD_IOC_ALLOC_MTT: vaddr: 0x935000, paddr: 0x4a8000 mtt_index 290
660102250: svrsys.cpu.workload.drivers: [HanGuDriver]  HGKFD_IOC_ALLOC_MTT: vaddr: 0x937000, paddr: 0x4aa000 mtt_index 291
660102250: svrsys.cpu.workload.drivers: [HanGuDriver]  HGKFD_IOC_ALLOC_MTT: vaddr: 0x939000, paddr: 0x4ac000 mtt_index 292
660102250: svrsys.cpu.workload.drivers: [HanGuDriver]  HGKFD_IOC_ALLOC_MTT: vaddr: 0x93b000, paddr: 0x4ae000 mtt_index 293
660102250: svrsys.cpu.workload.drivers: [HanGuDriver]  HGKFD_IOC_ALLOC_MTT: vaddr: 0x93d000, paddr: 0x4b0000 mtt_index 294
660102250: svrsys.cpu.workload.drivers: [HanGuDriver]  HGKFD_IOC_ALLOC_MTT: vaddr: 0x93f000, paddr: 0x4b2000 mtt_index 295
660102250: svrsys.cpu.workload.drivers: [HanGuDriver]  HGKFD_IOC_ALLOC_MTT: vaddr: 0x941000, paddr: 0x4b4000 mtt_index 296
660102250: svrsys.cpu.workload.drivers: [HanGuDriver]  HGKFD_IOC_ALLOC_MTT: vaddr: 0x943000, paddr: 0x4b6000 mtt_index 297
660102250: svrsys.cpu.workload.drivers: [HanGuDriver]  HGKFD_IOC_ALLOC_MTT: vaddr: 0x945000, paddr: 0x4b8000 mtt_index 298
660102250: svrsys.cpu.workload.drivers: [HanGuDriver]  HGKFD_IOC_ALLOC_MTT: vaddr: 0x947000, paddr: 0x4ba000 mtt_index 299
660102250: svrsys.cpu.workload.drivers: [HanGuDriver]  HGKFD_IOC_ALLOC_MTT: vaddr: 0x949000, paddr: 0x4bc000 mtt_index 300
660102250: svrsys.cpu.workload.drivers: [HanGuDriver]  HGKFD_IOC_ALLOC_MTT: vaddr: 0x94b000, paddr: 0x4be000 mtt_index 301
660102250: svrsys.cpu.workload.drivers: [HanGuDriver]  HGKFD_IOC_ALLOC_MTT: vaddr: 0x94d000, paddr: 0x4c0000 mtt_index 302
660102250: svrsys.cpu.workload.drivers: [HanGuDriver]  HGKFD_IOC_ALLOC_MTT: vaddr: 0x94f000, paddr: 0x4c2000 mtt_index 303
660102250: svrsys.cpu.workload.drivers: [HanGuDriver]  HGKFD_IOC_ALLOC_MTT: vaddr: 0x951000, paddr: 0x4c4000 mtt_index 304
660102250: svrsys.cpu.workload.drivers: [HanGuDriver]  HGKFD_IOC_ALLOC_MTT: vaddr: 0x953000, paddr: 0x4c6000 mtt_index 305
660102250: svrsys.cpu.workload.drivers: [HanGuDriver]  HGKFD_IOC_ALLOC_MTT: vaddr: 0x955000, paddr: 0x4c8000 mtt_index 306
660102250: svrsys.cpu.workload.drivers: [HanGuDriver]  HGKFD_IOC_ALLOC_MTT: vaddr: 0x957000, paddr: 0x4ca000 mtt_index 307
660102250: svrsys.cpu.workload.drivers: [HanGuDriver]  HGKFD_IOC_ALLOC_MTT: vaddr: 0x959000, paddr: 0x4cc000 mtt_index 308
660102250: svrsys.cpu.workload.drivers: [HanGuDriver]  HGKFD_IOC_ALLOC_MTT: vaddr: 0x95b000, paddr: 0x4ce000 mtt_index 309
660102250: svrsys.cpu.workload.drivers: [HanGuDriver]  HGKFD_IOC_ALLOC_MTT: vaddr: 0x95d000, paddr: 0x4d0000 mtt_index 310
660102250: svrsys.cpu.workload.drivers: [HanGuDriver]  HGKFD_IOC_ALLOC_MTT: vaddr: 0x95f000, paddr: 0x4d2000 mtt_index 311
660102250: svrsys.cpu.workload.drivers: [HanGuDriver]  HGKFD_IOC_ALLOC_MTT: vaddr: 0x961000, paddr: 0x4d4000 mtt_index 312
660102250: svrsys.cpu.workload.drivers: [HanGuDriver]  HGKFD_IOC_ALLOC_MTT: vaddr: 0x963000, paddr: 0x4d6000 mtt_index 313
[...]
9436094744: svrsys.platform.rdma_nic.CqcModule: [CxtResc]  CqcModule.cqcReqProc: out!
9436096744: svrsys.platform.rdma_nic.CqcModule: [CxtResc]  CqcModule.cqcRspProc!
9436096744: svrsys.platform.rdma_nic.CqcModule: [CxtResc]  CqcModule.cqcRspProc: out!
[SERVER: Server10-0] qpn_num: 111, latency_test consume_time 1938.00 ns
9438681750: svrsys.platform.rdma_nic.QpcModule: [CxtResc]  QpcModule.qpcReqProc.readProc: cache miss, chnlNum 3, qpn 112, rtnCnt 0
9439203146: svrsys.platform.rdma_nic.QpcModule: [CxtResc]  HanGuRnic.Cache.replaceEntry: out! 12
9439211178: svrsys.platform.rdma_nic.QpcModule: [CxtResc]  QpcModule.qpcReqProc.readProc: cache hit, chnlNum 1, qpn 112
9439834347: cltsys.platform.rdma_nic.QpcModule: [CxtResc]  QpcModule.qpcReqProc.readProc: cache miss, chnlNum 2, qpn 112, rtnCnt 0
9440355743: cltsys.platform.rdma_nic.QpcModule: [CxtResc]  HanGuRnic.Cache.replaceEntry: out! 12
9440460744: svrsys.platform.rdma_nic.CqcModule: [CxtResc]  CqcModule.cqcReqProc!
9440460744: svrsys.platform.rdma_nic.CqcModule: [CxtResc]  CqcModule.cqcReqProc: tx CQC read req posted!
9440460744: svrsys.platform.rdma_nic.CqcModule: [CxtResc]  CqcModule.cqcReqProc: out!
9440462744: svrsys.platform.rdma_nic.CqcModule: [CxtResc]  CqcModule.cqcRspProc!
9440462744: svrsys.platform.rdma_nic.CqcModule: [CxtResc]  CqcModule.cqcRspProc: out!
[SERVER: Server10-0] qpn_num: 112, latency_test consume_time 1938.00 ns
9443047750: svrsys.platform.rdma_nic.QpcModule: [CxtResc]  QpcModule.qpcReqProc.readProc: cache miss, chnlNum 3, qpn 113, rtnCnt 0
9443569146: svrsys.platform.rdma_nic.QpcModule: [CxtResc]  HanGuRnic.Cache.replaceEntry: out! 13
9443577178: svrsys.platform.rdma_nic.QpcModule: [CxtResc]  QpcModule.qpcReqProc.readProc: cache hit, chnlNum 1, qpn 113
9444200347: cltsys.platform.rdma_nic.QpcModule: [CxtResc]  QpcModule.qpcReqProc.readProc: cache miss, chnlNum 2, qpn 113, rtnCnt 0
9444721743: cltsys.platform.rdma_nic.QpcModule: [CxtResc]  HanGuRnic.Cache.replaceEntry: out! 13
9444826744: svrsys.platform.rdma_nic.CqcModule: [CxtResc]  CqcModule.cqcReqProc!
9444826744: svrsys.platform.rdma_nic.CqcModule: [CxtResc]  CqcModule.cqcReqProc: tx CQC read req posted!
9444826744: svrsys.platform.rdma_nic.CqcModule: [CxtResc]  CqcModule.cqcReqProc: out!
9444828744: svrsys.platform.rdma_nic.CqcModule: [CxtResc]  CqcModule.cqcRspProc!
9444828744: svrsys.platform.rdma_nic.CqcModule: [CxtResc]  CqcModule.cqcRspProc: out!
[SERVER: Server10-0] qpn_num: 113, latency_test consume_time 1938.00 ns
9447413750: svrsys.platform.rdma_nic.QpcModule: [CxtResc]  QpcModule.qpcReqProc.readProc: cache miss, chnlNum 3, qpn 114, rtnCnt 0
9447935146: svrsys.platform.rdma_nic.QpcModule: [CxtResc]  HanGuRnic.Cache.replaceEntry: out! 14
9447943178: svrsys.platform.rdma_nic.QpcModule: [CxtResc]  QpcModule.qpcReqProc.readProc: cache hit, chnlNum 1, qpn 114
9448566347: cltsys.platform.rdma_nic.QpcModule: [CxtResc]  QpcModule.qpcReqProc.readProc: cache miss, chnlNum 2, qpn 114, rtnCnt 0
9449087743: cltsys.platform.rdma_nic.QpcModule: [CxtResc]  HanGuRnic.Cache.replaceEntry: out! 14
9449192744: svrsys.platform.rdma_nic.CqcModule: [CxtResc]  CqcModule.cqcReqProc!
9449192744: svrsys.platform.rdma_nic.CqcModule: [CxtResc]  CqcModule.cqcReqProc: tx CQC read req posted!
9449192744: svrsys.platform.rdma_nic.CqcModule: [CxtResc]  CqcModule.cqcReqProc: out!
9449194744: svrsys.platform.rdma_nic.CqcModule: [CxtResc]  CqcModule.cqcRspProc!
9449194744: svrsys.platform.rdma_nic.CqcModule: [CxtResc]  CqcModule.cqcRspProc: out!
[SERVER: Server10-0] qpn_num: 114, latency_test consume_time 1938.00 ns
9451779750: svrsys.platform.rdma_nic.QpcModule: [CxtResc]  QpcModule.qpcReqProc.readProc: cache miss, chnlNum 3, qpn 115, rtnCnt 0
9452301146: svrsys.platform.rdma_nic.QpcModule: [CxtResc]  HanGuRnic.Cache.replaceEntry: out! 15
9452309178: svrsys.platform.rdma_nic.QpcModule: [CxtResc]  QpcModule.qpcReqProc.readProc: cache hit, chnlNum 1, qpn 115
9452932347: cltsys.platform.rdma_nic.QpcModule: [CxtResc]  QpcModule.qpcReqProc.readProc: cache miss, chnlNum 2, qpn 115, rtnCnt 0
9453453743: cltsys.platform.rdma_nic.QpcModule: [CxtResc]  HanGuRnic.Cache.replaceEntry: out! 15
9453558744: svrsys.platform.rdma_nic.CqcModule: [CxtResc]  CqcModule.cqcReqProc!
9453558744: svrsys.platform.rdma_nic.CqcModule: [CxtResc]  CqcModule.cqcReqProc: tx CQC read req posted!
9453558744: svrsys.platform.rdma_nic.CqcModule: [CxtResc]  CqcModule.cqcReqProc: out!
9453560744: svrsys.platform.rdma_nic.CqcModule: [CxtResc]  CqcModule.cqcRspProc!
9453560744: svrsys.platform.rdma_nic.CqcModule: [CxtResc]  CqcModule.cqcRspProc: out!
[SERVER: Server10-0] qpn_num: 115, latency_test consume_time 1938.00 ns
9456145750: svrsys.platform.rdma_nic.QpcModule: [CxtResc]  QpcModule.qpcReqProc.readProc: cache miss, chnlNum 3, qpn 116, rtnCnt 0
9456667146: svrsys.platform.rdma_nic.QpcModule: [CxtResc]  HanGuRnic.Cache.replaceEntry: out! 16
9456675178: svrsys.platform.rdma_nic.QpcModule: [CxtResc]  QpcModule.qpcReqProc.readProc: cache hit, chnlNum 1, qpn 116
9457298347: cltsys.platform.rdma_nic.QpcModule: [CxtResc]  QpcModule.qpcReqProc.readProc: cache miss, chnlNum 2, qpn 116, rtnCnt 0
9457819743: cltsys.platform.rdma_nic.QpcModule: [CxtResc]  HanGuRnic.Cache.replaceEntry: out! 16
9457924744: svrsys.platform.rdma_nic.CqcModule: [CxtResc]  CqcModule.cqcReqProc!
9457924744: svrsys.platform.rdma_nic.CqcModule: [CxtResc]  CqcModule.cqcReqProc: tx CQC read req posted!
9457924744: svrsys.platform.rdma_nic.CqcModule: [CxtResc]  CqcModule.cqcReqProc: out!
9457926744: svrsys.platform.rdma_nic.CqcModule: [CxtResc]  CqcModule.cqcRspProc!
9457926744: svrsys.platform.rdma_nic.CqcModule: [CxtResc]  CqcModule.cqcRspProc: out!
[SERVER: Server10-0] qpn_num: 116, latency_test consume_time 1938.00 ns
9460511750: svrsys.platform.rdma_nic.QpcModule: [CxtResc]  QpcModule.qpcReqProc.readProc: cache miss, chnlNum 3, qpn 117, rtnCnt 0
9461033146: svrsys.platform.rdma_nic.QpcModule: [CxtResc]  HanGuRnic.Cache.replaceEntry: out! 17
9461041178: svrsys.platform.rdma_nic.QpcModule: [CxtResc]  QpcModule.qpcReqProc.readProc: cache hit, chnlNum 1, qpn 117
9461664347: cltsys.platform.rdma_nic.QpcModule: [CxtResc]  QpcModule.qpcReqProc.readProc: cache miss, chnlNum 2, qpn 117, rtnCnt 0
9462185743: cltsys.platform.rdma_nic.QpcModule: [CxtResc]  HanGuRnic.Cache.replaceEntry: out! 17
9462290744: svrsys.platform.rdma_nic.CqcModule: [CxtResc]  CqcModule.cqcReqProc!
9462290744: svrsys.platform.rdma_nic.CqcModule: [CxtResc]  CqcModule.cqcReqProc: tx CQC read req posted!
9462290744: svrsys.platform.rdma_nic.CqcModule: [CxtResc]  CqcModule.cqcReqProc: out!
9462292744: svrsys.platform.rdma_nic.CqcModule: [CxtResc]  CqcModule.cqcRspProc!
9462292744: svrsys.platform.rdma_nic.CqcModule: [CxtResc]  CqcModule.cqcRspProc: out!
[SERVER: Server10-0] qpn_num: 117, latency_test consume_time 1938.00 ns
9464877750: svrsys.platform.rdma_nic.QpcModule: [CxtResc]  QpcModule.qpcReqProc.readProc: cache miss, chnlNum 3, qpn 118, rtnCnt 0
9465399146: svrsys.platform.rdma_nic.QpcModule: [CxtResc]  HanGuRnic.Cache.replaceEntry: out! 18
9465407178: svrsys.platform.rdma_nic.QpcModule: [CxtResc]  QpcModule.qpcReqProc.readProc: cache hit, chnlNum 1, qpn 118
9466030347: cltsys.platform.rdma_nic.QpcModule: [CxtResc]  QpcModule.qpcReqProc.readProc: cache miss, chnlNum 2, qpn 118, rtnCnt 0
9466551743: cltsys.platform.rdma_nic.QpcModule: [CxtResc]  HanGuRnic.Cache.replaceEntry: out! 18
9466656744: svrsys.platform.rdma_nic.CqcModule: [CxtResc]  CqcModule.cqcReqProc!
9466656744: svrsys.platform.rdma_nic.CqcModule: [CxtResc]  CqcModule.cqcReqProc: tx CQC read req posted!
9466656744: svrsys.platform.rdma_nic.CqcModule: [CxtResc]  CqcModule.cqcReqProc: out!
9466658744: svrsys.platform.rdma_nic.CqcModule: [CxtResc]  CqcModule.cqcRspProc!
9466658744: svrsys.platform.rdma_nic.CqcModule: [CxtResc]  CqcModule.cqcRspProc: out!
[SERVER: Server10-0] qpn_num: 118, latency_test consume_time 1938.00 ns
9469243750: svrsys.platform.rdma_nic.QpcModule: [CxtResc]  QpcModule.qpcReqProc.readProc: cache miss, chnlNum 3, qpn 119, rtnCnt 0
9469765146: svrsys.platform.rdma_nic.QpcModule: [CxtResc]  HanGuRnic.Cache.replaceEntry: out! 19
9469773178: svrsys.platform.rdma_nic.QpcModule: [CxtResc]  QpcModule.qpcReqProc.readProc: cache hit, chnlNum 1, qpn 119
9470396347: cltsys.platform.rdma_nic.QpcModule: [CxtResc]  QpcModule.qpcReqProc.readProc: cache miss, chnlNum 2, qpn 119, rtnCnt 0
9470917743: cltsys.platform.rdma_nic.QpcModule: [CxtResc]  HanGuRnic.Cache.replaceEntry: out! 19
9471022744: svrsys.platform.rdma_nic.CqcModule: [CxtResc]  CqcModule.cqcReqProc!
9471022744: svrsys.platform.rdma_nic.CqcModule: [CxtResc]  CqcModule.cqcReqProc: tx CQC read req posted!
9471022744: svrsys.platform.rdma_nic.CqcModule: [CxtResc]  CqcModule.cqcReqProc: out!
9471024744: svrsys.platform.rdma_nic.CqcModule: [CxtResc]  CqcModule.cqcRspProc!
9471024744: svrsys.platform.rdma_nic.CqcModule: [CxtResc]  CqcModule.cqcRspProc: out!
[SERVER: Server10-0] qpn_num: 119, latency_test consume_time 1938.00 ns
9473609750: svrsys.platform.rdma_nic.QpcModule: [CxtResc]  QpcModule.qpcReqProc.readProc: cache miss, chnlNum 3, qpn 120, rtnCnt 0
9474131146: svrsys.platform.rdma_nic.QpcModule: [CxtResc]  HanGuRnic.Cache.replaceEntry: out! 20
9474139178: svrsys.platform.rdma_nic.QpcModule: [CxtResc]  QpcModule.qpcReqProc.readProc: cache hit, chnlNum 1, qpn 120
9474762347: cltsys.platform.rdma_nic.QpcModule: [CxtResc]  QpcModule.qpcReqProc.readProc: cache miss, chnlNum 2, qpn 120, rtnCnt 0
9475283743: cltsys.platform.rdma_nic.QpcModule: [CxtResc]  HanGuRnic.Cache.replaceEntry: out! 20
9475388744: svrsys.platform.rdma_nic.CqcModule: [CxtResc]  CqcModule.cqcReqProc!
9475388744: svrsys.platform.rdma_nic.CqcModule: [CxtResc]  CqcModule.cqcReqProc: tx CQC read req posted!
9475388744: svrsys.platform.rdma_nic.CqcModule: [CxtResc]  CqcModule.cqcReqProc: out!
9475390744: svrsys.platform.rdma_nic.CqcModule: [CxtResc]  CqcModule.cqcRspProc!
9475390744: svrsys.platform.rdma_nic.CqcModule: [CxtResc]  CqcModule.cqcRspProc: out!
[SERVER: Server10-0] qpn_num: 120, latency_test consume_time 1938.00 ns
9477975750: svrsys.platform.rdma_nic.QpcModule: [CxtResc]  QpcModule.qpcReqProc.readProc: cache miss, chnlNum 3, qpn 121, rtnCnt 0
9478497146: svrsys.platform.rdma_nic.QpcModule: [CxtResc]  HanGuRnic.Cache.replaceEntry: out! 21
9478505178: svrsys.platform.rdma_nic.QpcModule: [CxtResc]  QpcModule.qpcReqProc.readProc: cache hit, chnlNum 1, qpn 121
9479128347: cltsys.platform.rdma_nic.QpcModule: [CxtResc]  QpcModule.qpcReqProc.readProc: cache miss, chnlNum 2, qpn 121, rtnCnt 0
9479649743: cltsys.platform.rdma_nic.QpcModule: [CxtResc]  HanGuRnic.Cache.replaceEntry: out! 21
9479754744: svrsys.platform.rdma_nic.CqcModule: [CxtResc]  CqcModule.cqcReqProc!
9479754744: svrsys.platform.rdma_nic.CqcModule: [CxtResc]  CqcModule.cqcReqProc: tx CQC read req posted!
9479754744: svrsys.platform.rdma_nic.CqcModule: [CxtResc]  CqcModule.cqcReqProc: out!
9479756744: svrsys.platform.rdma_nic.CqcModule: [CxtResc]  CqcModule.cqcRspProc!
9479756744: svrsys.platform.rdma_nic.CqcModule: [CxtResc]  CqcModule.cqcRspProc: out!
[SERVER: Server10-0] qpn_num: 121, latency_test consume_time 1938.00 ns
9482341750: svrsys.platform.rdma_nic.QpcModule: [CxtResc]  QpcModule.qpcReqProc.readProc: cache miss, chnlNum 3, qpn 122, rtnCnt 0
9482863146: svrsys.platform.rdma_nic.QpcModule: [CxtResc]  HanGuRnic.Cache.replaceEntry: out! 22
9482871178: svrsys.platform.rdma_nic.QpcModule: [CxtResc]  QpcModule.qpcReqProc.readProc: cache hit, chnlNum 1, qpn 122
9483494347: cltsys.platform.rdma_nic.QpcModule: [CxtResc]  QpcModule.qpcReqProc.readProc: cache miss, chnlNum 2, qpn 122, rtnCnt 0
9484015743: cltsys.platform.rdma_nic.QpcModule: [CxtResc]  HanGuRnic.Cache.replaceEntry: out! 22
9484120744: svrsys.platform.rdma_nic.CqcModule: [CxtResc]  CqcModule.cqcReqProc!
9484120744: svrsys.platform.rdma_nic.CqcModule: [CxtResc]  CqcModule.cqcReqProc: tx CQC read req posted!
9484120744: svrsys.platform.rdma_nic.CqcModule: [CxtResc]  CqcModule.cqcReqProc: out!
9484122744: svrsys.platform.rdma_nic.CqcModule: [CxtResc]  CqcModule.cqcRspProc!
9484122744: svrsys.platform.rdma_nic.CqcModule: [CxtResc]  CqcModule.cqcRspProc: out!
[SERVER: Server10-0] qpn_num: 122, latency_test consume_time 1938.00 ns
9486707750: svrsys.platform.rdma_nic.QpcModule: [CxtResc]  QpcModule.qpcReqProc.readProc: cache miss, chnlNum 3, qpn 123, rtnCnt 0
9487229146: svrsys.platform.rdma_nic.QpcModule: [CxtResc]  HanGuRnic.Cache.replaceEntry: out! 23
9487237178: svrsys.platform.rdma_nic.QpcModule: [CxtResc]  QpcModule.qpcReqProc.readProc: cache hit, chnlNum 1, qpn 123
9487860347: cltsys.platform.rdma_nic.QpcModule: [CxtResc]  QpcModule.qpcReqProc.readProc: cache miss, chnlNum 2, qpn 123, rtnCnt 0
9488381743: cltsys.platform.rdma_nic.QpcModule: [CxtResc]  HanGuRnic.Cache.replaceEntry: out! 23
9488486744: svrsys.platform.rdma_nic.CqcModule: [CxtResc]  CqcModule.cqcReqProc!
9488486744: svrsys.platform.rdma_nic.CqcModule: [CxtResc]  CqcModule.cqcReqProc: tx CQC read req posted!
9488486744: svrsys.platform.rdma_nic.CqcModule: [CxtResc]  CqcModule.cqcReqProc: out!
9488488744: svrsys.platform.rdma_nic.CqcModule: [CxtResc]  CqcModule.cqcRspProc!
9488488744: svrsys.platform.rdma_nic.CqcModule: [CxtResc]  CqcModule.cqcRspProc: out!
[SERVER: Server10-0] qpn_num: 123, latency_test consume_time 1938.00 ns
9491073750: svrsys.platform.rdma_nic.QpcModule: [CxtResc]  QpcModule.qpcReqProc.readProc: cache miss, chnlNum 3, qpn 124, rtnCnt 0
9491595146: svrsys.platform.rdma_nic.QpcModule: [CxtResc]  HanGuRnic.Cache.replaceEntry: out! 24
9491603178: svrsys.platform.rdma_nic.QpcModule: [CxtResc]  QpcModule.qpcReqProc.readProc: cache hit, chnlNum 1, qpn 124
9492226347: cltsys.platform.rdma_nic.QpcModule: [CxtResc]  QpcModule.qpcReqProc.readProc: cache miss, chnlNum 2, qpn 124, rtnCnt 0
9492747743: cltsys.platform.rdma_nic.QpcModule: [CxtResc]  HanGuRnic.Cache.replaceEntry: out! 24
9492852744: svrsys.platform.rdma_nic.CqcModule: [CxtResc]  CqcModule.cqcReqProc!
9492852744: svrsys.platform.rdma_nic.CqcModule: [CxtResc]  CqcModule.cqcReqProc: tx CQC read req posted!
9492852744: svrsys.platform.rdma_nic.CqcModule: [CxtResc]  CqcModule.cqcReqProc: out!
9492854744: svrsys.platform.rdma_nic.CqcModule: [CxtResc]  CqcModule.cqcRspProc!
9492854744: svrsys.platform.rdma_nic.CqcModule: [CxtResc]  CqcModule.cqcRspProc: out!
[SERVER: Server10-0] qpn_num: 124, latency_test consume_time 1938.00 ns
9495439750: svrsys.platform.rdma_nic.QpcModule: [CxtResc]  QpcModule.qpcReqProc.readProc: cache miss, chnlNum 3, qpn 125, rtnCnt 0
9495961146: svrsys.platform.rdma_nic.QpcModule: [CxtResc]  HanGuRnic.Cache.replaceEntry: out! 25
9495969178: svrsys.platform.rdma_nic.QpcModule: [CxtResc]  QpcModule.qpcReqProc.readProc: cache hit, chnlNum 1, qpn 125
9496592347: cltsys.platform.rdma_nic.QpcModule: [CxtResc]  QpcModule.qpcReqProc.readProc: cache miss, chnlNum 2, qpn 125, rtnCnt 0
9497113743: cltsys.platform.rdma_nic.QpcModule: [CxtResc]  HanGuRnic.Cache.replaceEntry: out! 25
9497218744: svrsys.platform.rdma_nic.CqcModule: [CxtResc]  CqcModule.cqcReqProc!
9497218744: svrsys.platform.rdma_nic.CqcModule: [CxtResc]  CqcModule.cqcReqProc: tx CQC read req posted!
9497218744: svrsys.platform.rdma_nic.CqcModule: [CxtResc]  CqcModule.cqcReqProc: out!
9497220744: svrsys.platform.rdma_nic.CqcModule: [CxtResc]  CqcModule.cqcRspProc!
9497220744: svrsys.platform.rdma_nic.CqcModule: [CxtResc]  CqcModule.cqcRspProc: out!
[SERVER: Server10-0] qpn_num: 125, latency_test consume_time 1938.00 ns
9499805750: svrsys.platform.rdma_nic.QpcModule: [CxtResc]  QpcModule.qpcReqProc.readProc: cache miss, chnlNum 3, qpn 126, rtnCnt 0
9500327146: svrsys.platform.rdma_nic.QpcModule: [CxtResc]  HanGuRnic.Cache.replaceEntry: out! 26
9500335178: svrsys.platform.rdma_nic.QpcModule: [CxtResc]  QpcModule.qpcReqProc.readProc: cache hit, chnlNum 1, qpn 126
9500958347: cltsys.platform.rdma_nic.QpcModule: [CxtResc]  QpcModule.qpcReqProc.readProc: cache miss, chnlNum 2, qpn 126, rtnCnt 0
9501479743: cltsys.platform.rdma_nic.QpcModule: [CxtResc]  HanGuRnic.Cache.replaceEntry: out! 26
9501584744: svrsys.platform.rdma_nic.CqcModule: [CxtResc]  CqcModule.cqcReqProc!
9501584744: svrsys.platform.rdma_nic.CqcModule: [CxtResc]  CqcModule.cqcReqProc: tx CQC read req posted!
9501584744: svrsys.platform.rdma_nic.CqcModule: [CxtResc]  CqcModule.cqcReqProc: out!
9501586744: svrsys.platform.rdma_nic.CqcModule: [CxtResc]  CqcModule.cqcRspProc!
9501586744: svrsys.platform.rdma_nic.CqcModule: [CxtResc]  CqcModule.cqcRspProc: out!
[SERVER: Server10-0] qpn_num: 126, latency_test consume_time 1938.00 ns
9504171750: svrsys.platform.rdma_nic.QpcModule: [CxtResc]  QpcModule.qpcReqProc.readProc: cache miss, chnlNum 3, qpn 127, rtnCnt 0
9504693146: svrsys.platform.rdma_nic.QpcModule: [CxtResc]  HanGuRnic.Cache.replaceEntry: out! 27
9504701178: svrsys.platform.rdma_nic.QpcModule: [CxtResc]  QpcModule.qpcReqProc.readProc: cache hit, chnlNum 1, qpn 127
9505324347: cltsys.platform.rdma_nic.QpcModule: [CxtResc]  QpcModule.qpcReqProc.readProc: cache miss, chnlNum 2, qpn 127, rtnCnt 0
9505845743: cltsys.platform.rdma_nic.QpcModule: [CxtResc]  HanGuRnic.Cache.replaceEntry: out! 27
9505950744: svrsys.platform.rdma_nic.CqcModule: [CxtResc]  CqcModule.cqcReqProc!
9505950744: svrsys.platform.rdma_nic.CqcModule: [CxtResc]  CqcModule.cqcReqProc: tx CQC read req posted!
9505950744: svrsys.platform.rdma_nic.CqcModule: [CxtResc]  CqcModule.cqcReqProc: out!
9505952744: svrsys.platform.rdma_nic.CqcModule: [CxtResc]  CqcModule.cqcRspProc!
9505952744: svrsys.platform.rdma_nic.CqcModule: [CxtResc]  CqcModule.cqcRspProc: out!
[SERVER: Server10-0] qpn_num: 127, latency_test consume_time 1938.00 ns
9508537750: svrsys.platform.rdma_nic.QpcModule: [CxtResc]  QpcModule.qpcReqProc.readProc: cache miss, chnlNum 3, qpn 128, rtnCnt 0
9509059146: svrsys.platform.rdma_nic.QpcModule: [CxtResc]  HanGuRnic.Cache.replaceEntry: out! 28
9509067178: svrsys.platform.rdma_nic.QpcModule: [CxtResc]  QpcModule.qpcReqProc.readProc: cache hit, chnlNum 1, qpn 128
9509690347: cltsys.platform.rdma_nic.QpcModule: [CxtResc]  QpcModule.qpcReqProc.readProc: cache miss, chnlNum 2, qpn 128, rtnCnt 0
9510211743: cltsys.platform.rdma_nic.QpcModule: [CxtResc]  HanGuRnic.Cache.replaceEntry: out! 28
9510316744: svrsys.platform.rdma_nic.CqcModule: [CxtResc]  CqcModule.cqcReqProc!
9510316744: svrsys.platform.rdma_nic.CqcModule: [CxtResc]  CqcModule.cqcReqProc: tx CQC read req posted!
9510316744: svrsys.platform.rdma_nic.CqcModule: [CxtResc]  CqcModule.cqcReqProc: out!
9510318744: svrsys.platform.rdma_nic.CqcModule: [CxtResc]  CqcModule.cqcRspProc!
9510318744: svrsys.platform.rdma_nic.CqcModule: [CxtResc]  CqcModule.cqcRspProc: out!
[SERVER: Server10-0] qpn_num: 128, latency_test consume_time 1938.00 ns
[SERVER: Server10-0] latency test end!,latency = 1938.00 ns
9515378000: svrsys.platform.rdma_nic.QpcModule: [CxtResc]  QpcModule.qpcReqProc.readProc: cache miss, chnlNum 3, qpn 0, rtnCnt 0
9515899396: svrsys.platform.rdma_nic.QpcModule: [CxtResc]  HanGuRnic.Cache.replaceEntry: out! 29
9515907428: svrsys.platform.rdma_nic.QpcModule: [CxtResc]  QpcModule.qpcReqProc.readProc: cache hit, chnlNum 1, qpn 0
9516527165: cltsys.platform.rdma_nic.QpcModule: [CxtResc]  QpcModule.qpcReqProc.readProc: cache miss, chnlNum 2, qpn 0, rtnCnt 0
9517048561: cltsys.platform.rdma_nic.QpcModule: [CxtResc]  HanGuRnic.Cache.replaceEntry: out! 29
9517561585: cltsys.platform.rdma_nic.CqcModule: [CxtResc]  CqcModule.cqcReqProc!
9517561585: cltsys.platform.rdma_nic.CqcModule: [CxtResc]  CqcModule.cqcReqProc: rx CQC read req posted!
9517561585: cltsys.platform.rdma_nic.CqcModule: [CxtResc]  CqcModule.cqcReqProc: out!
9517563585: cltsys.platform.rdma_nic.CqcModule: [CxtResc]  CqcModule.cqcRspProc!
9517563585: cltsys.platform.rdma_nic.CqcModule: [CxtResc]  CqcModule.cqcRspProc: out!
Exiting @ tick 9517917750 because exiting with last active thread context
