Global frequency set at 1000000000000 ticks per second
gem5 Simulator System.  http://gem5.org
gem5 is copyrighted software; use the --copyright option for details.

gem5 version 20.1.0.2
gem5 compiled Jan 26 2024 10:22:01
gem5 started Jan 26 2024 10:23:21
gem5 executing on node28, pid 7964
command line: build/X86/gem5.opt --debug-flags=HanGuDriver,CxtResc configs/example/rdma/hangu_rnic_se.py --cpu-clock 4GHz --num-cpus 1 -c 'tests/test-progs/hangu-rnic/src/qos/server;tests/test-progs/hangu-rnic/src/qos/client' -o '-s 10 -t 1 -m 0;-s 10 -l 11 -t 1 -m 0' --node-num 2 --ethernet-linkspeed 100Gbps --pci-linkspeed 128Gbps --qpc-cache-cap 100 --reorder-cap 64 --mem-size 2048MB

{'num_cpus': 1, 'sys_voltage': '1.0V', 'sys_clock': '1GHz', 'mem_type': 'DDR3_1600_8x8', 'mem_channels': 1, 'mem_ranks': None, 'mem_size': '2048MB', 'enable_dram_powerdown': None, 'mem_channels_intlv': 0, 'memchecker': None, 'external_memory_system': None, 'tlm_memory': None, 'caches': None, 'l2cache': None, 'num_dirs': 1, 'num_l2caches': 1, 'num_l3caches': 1, 'l1d_size': '64kB', 'l1i_size': '32kB', 'l2_size': '2MB', 'l3_size': '16MB', 'l1d_assoc': 2, 'l1i_assoc': 2, 'l2_assoc': 8, 'l3_assoc': 16, 'cacheline_size': 64, 'ruby': None, 'abs_max_tick': 18446744073709551615, 'rel_max_tick': None, 'maxtime': None, 'param': [], 'cpu_type': 'AtomicSimpleCPU', 'bp_type': None, 'indirect_bp_type': None, 'l1i_hwp_type': None, 'l1d_hwp_type': None, 'l2_hwp_type': None, 'checker': None, 'cpu_clock': '4GHz', 'smt': False, 'elastic_trace_en': None, 'inst_trace_file': '', 'data_trace_file': '', 'lpae': None, 'virtualisation': None, 'dist': None, 'dist_sync_on_pseudo_op': None, 'is_switch': None, 'dist_rank': 0, 'dist_size': 0, 'dist_server_name': '127.0.0.1', 'dist_server_port': 2200, 'dist_sync_repeat': '0us', 'dist_sync_start': '5200000000000t', 'ethernet_linkspeed': '100Gbps', 'ethernet_linkdelay': '10us', 'maxinsts': None, 'work_item_id': None, 'num_work_ids': None, 'work_begin_cpu_id_exit': None, 'work_end_exit_count': None, 'work_begin_exit_count': None, 'init_param': 0, 'initialize_only': False, 'simpoint_profile': None, 'simpoint_interval': 10000000, 'take_simpoint_checkpoints': None, 'restore_simpoint_checkpoint': None, 'take_checkpoints': None, 'max_checkpoints': 5, 'checkpoint_dir': None, 'checkpoint_restore': None, 'checkpoint_at_end': None, 'work_begin_checkpoint_count': None, 'work_end_checkpoint_count': None, 'work_cpus_checkpoint_count': None, 'restore_with_cpu': 'AtomicSimpleCPU', 'repeat_switch': None, 'standard_switch': None, 'prog_interval': None, 'warmup_insts': None, 'bench': None, 'fast_forward': None, 'simpoint': False, 'at_instruction': False, 'spec_input': 'ref', 'arm_iset': 'arm', 'stats_root': [], 'cmd': 'tests/test-progs/hangu-rnic/src/qos/server;tests/test-progs/hangu-rnic/src/qos/client', 'options': '-s 10 -t 1 -m 0;-s 10 -l 11 -t 1 -m 0', 'env': '', 'input': '', 'output': '', 'errout': '', 'chroot': None, 'interp_dir': None, 'redirects': [], 'wait_gdb': False, 'node_num': 2, 'pci_linkspeed': '128Gbps', 'qpc_cache_cap': 100, 'reorder_cap': 64}
tests/test-progs/hangu-rnic/src/qos/server
['tests/test-progs/hangu-rnic/src/qos/server', '-s', '10', '-t', '1', '-m', '0', '-c', '0']
tests/test-progs/hangu-rnic/src/qos/client
['tests/test-progs/hangu-rnic/src/qos/client', '-s', '10', '-l', '11', '-t', '1', '-m', '0', '-c', '0']
**** REAL SIMULATION ****
6888250: svrsys.cpu.workload.drivers: [HanGuDriver] open : hangu_rnic0.
6909500: svrsys.cpu.workload.drivers: [HanGuDriver]  rnic hangu_rnic doorbell mmap (start: 0, length: 0x1000, offset: 0x0) cxt_id 0
6909500: svrsys.cpu.workload.drivers: [HanGuDriver]  addrList size 1
6909500: svrsys.cpu.workload.drivers: [HanGuDriver]  baseAddrBar0.start 0xc000000000000000, baseAddrBar0.size() 0x1000
6909500: svrsys.cpu.workload.drivers: [HanGuDriver]  rnic hangu_rnic doorbell mapped to 0x7ffff7ffe000
7044250: svrsys.cpu.workload.drivers: [HanGuDriver]  ioctl : HGKFD_IOC_INIT_DEV.
7044250: svrsys.cpu.workload.drivers: [HanGuDriver]  mailbox.vaddr : 0x7ffff7fde000, mailbox.paddr : 0xe5000
7044250: svrsys.cpu.workload.drivers: [HanGuDriver]  HGKFD_IOC_INIT_DEV mailbox initialized
7044250: svrsys.cpu.workload.drivers: [HanGuDriver]  mttMeta.entryNumPage 0x800
7044250: svrsys.cpu.workload.drivers: [HanGuDriver]  mptMeta.entryNumPage 0x2000
7044250: svrsys.cpu.workload.drivers: [HanGuDriver]  cqcMeta.entryNumPage 0x1000
7044250: svrsys.cpu.workload.drivers: [HanGuDriver]  qpcMeta.entryNumPage 0x10000
7044250: svrsys.cpu.workload.drivers: [HanGuDriver]  Start Write hcr
7044250: svrsys.cpu.workload.drivers: [HanGuDriver] physical qosShareAddr set into BAR0: 0x105000
7459000: cltsys.cpu.workload.drivers: [HanGuDriver] open : hangu_rnic0.
7480250: cltsys.cpu.workload.drivers: [HanGuDriver]  rnic hangu_rnic doorbell mmap (start: 0, length: 0x1000, offset: 0x0) cxt_id 0
7480250: cltsys.cpu.workload.drivers: [HanGuDriver]  addrList size 1
7480250: cltsys.cpu.workload.drivers: [HanGuDriver]  baseAddrBar0.start 0xc000000000000000, baseAddrBar0.size() 0x1000
7480250: cltsys.cpu.workload.drivers: [HanGuDriver]  rnic hangu_rnic doorbell mapped to 0x7ffff7ffe000
7615000: cltsys.cpu.workload.drivers: [HanGuDriver]  ioctl : HGKFD_IOC_INIT_DEV.
7615000: cltsys.cpu.workload.drivers: [HanGuDriver]  mailbox.vaddr : 0x7ffff7fde000, mailbox.paddr : 0xe4000
7615000: cltsys.cpu.workload.drivers: [HanGuDriver]  HGKFD_IOC_INIT_DEV mailbox initialized
7615000: cltsys.cpu.workload.drivers: [HanGuDriver]  mttMeta.entryNumPage 0x800
7615000: cltsys.cpu.workload.drivers: [HanGuDriver]  mptMeta.entryNumPage 0x2000
7615000: cltsys.cpu.workload.drivers: [HanGuDriver]  cqcMeta.entryNumPage 0x1000
7615000: cltsys.cpu.workload.drivers: [HanGuDriver]  qpcMeta.entryNumPage 0x10000
7615000: cltsys.cpu.workload.drivers: [HanGuDriver]  Start Write hcr
7615000: cltsys.cpu.workload.drivers: [HanGuDriver] physical qosShareAddr set into BAR0: 0x104000
9989000: svrsys.cpu.workload.drivers: [HanGuDriver] ioctl: HGKFD_IOC_ALLOC_GROUP
9989000: svrsys.cpu.workload.drivers: [HanGuDriver]  Start Write hcr
9989000: svrsys.cpu.workload.drivers: [HanGuDriver] group allocated! group ID: 0, groupNum: 1
10559750: cltsys.cpu.workload.drivers: [HanGuDriver] ioctl: HGKFD_IOC_ALLOC_GROUP
10559750: cltsys.cpu.workload.drivers: [HanGuDriver]  Start Write hcr
10559750: cltsys.cpu.workload.drivers: [HanGuDriver] group allocated! group ID: 0, groupNum: 1
13084000: svrsys.cpu.workload.drivers: [HanGuDriver] ioctl: HGKFD_IOC_SET_GROUP
13084000: svrsys.cpu.workload.drivers: [HanGuDriver] into setGroup command in driver! group num: 1, table size: 0
13084000: svrsys.cpu.workload.drivers: [HanGuDriver] write group weight to shared space, group id: 0, weight: 10
13084000: svrsys.cpu.workload.drivers: [HanGuDriver] write group weight sum to shared space: 10
13084000: svrsys.cpu.workload.drivers: [HanGuDriver] set group granularity! group id: 0, group weight: 10, QP weight sum: 0, granularity: 0
13084000: svrsys.cpu.workload.drivers: [HanGuDriver] ---------------------------
13084000: svrsys.cpu.workload.drivers: [HanGuDriver] print QoS info! group num: 1
13084000: svrsys.cpu.workload.drivers: [HanGuDriver] ---------------------------
13084000: svrsys.cpu.workload.drivers: [HanGuDriver]  Start Write hcr
13654750: cltsys.cpu.workload.drivers: [HanGuDriver] ioctl: HGKFD_IOC_SET_GROUP
13654750: cltsys.cpu.workload.drivers: [HanGuDriver] into setGroup command in driver! group num: 1, table size: 0
13654750: cltsys.cpu.workload.drivers: [HanGuDriver] write group weight to shared space, group id: 0, weight: 10
13654750: cltsys.cpu.workload.drivers: [HanGuDriver] write group weight sum to shared space: 10
13654750: cltsys.cpu.workload.drivers: [HanGuDriver] set group granularity! group id: 0, group weight: 10, QP weight sum: 0, granularity: 0
13654750: cltsys.cpu.workload.drivers: [HanGuDriver] ---------------------------
13654750: cltsys.cpu.workload.drivers: [HanGuDriver] print QoS info! group num: 1
13654750: cltsys.cpu.workload.drivers: [HanGuDriver] ---------------------------
13654750: cltsys.cpu.workload.drivers: [HanGuDriver]  Start Write hcr
16834750: svrsys.cpu.workload.drivers: [HanGuDriver]  ioctl : HGKFD_IOC_ALLOC_MTT.
16834750: svrsys.cpu.workload.drivers: [HanGuDriver]  HGKFD_IOC_ALLOC_MTT: vaddr: 0x6e2000, paddr: 0x107000 mtt_index 0
16834750: svrsys.cpu.workload.drivers: [HanGuDriver]  HGKFD_IOC_ALLOC_MTT mtt allocated
16834750: svrsys.cpu.workload.drivers: [HanGuDriver]  HGKFD_IOC_ALLOC_MTT mtt not mapped
16834750: svrsys.cpu.workload.drivers: [HanGuDriver]  rescMeta.start: 0x0, index 0x0, entrySize 8 icmVPage 0x0
16834750: svrsys.cpu.workload.drivers: [HanGuDriver]  icmAddrmap[0x0(0)]: 0x10a000
16834750: svrsys.cpu.workload.drivers: [HanGuDriver]  icmAddrmap[0x1(1)]: 0x10b000
16834750: svrsys.cpu.workload.drivers: [HanGuDriver]  icmAddrmap[0x2(2)]: 0x10c000
16834750: svrsys.cpu.workload.drivers: [HanGuDriver]  icmAddrmap[0x3(3)]: 0x10d000
16834750: svrsys.cpu.workload.drivers: [HanGuDriver]  icmAddrmap[0x4(4)]: 0x10e000
16834750: svrsys.cpu.workload.drivers: [HanGuDriver]  icmAddrmap[0x5(5)]: 0x10f000
16834750: svrsys.cpu.workload.drivers: [HanGuDriver]  icmAddrmap[0x6(6)]: 0x110000
16834750: svrsys.cpu.workload.drivers: [HanGuDriver]  icmAddrmap[0x7(7)]: 0x111000
16834750: svrsys.cpu.workload.drivers: [HanGuDriver]  icmAddrmap[0x8(8)]: 0x112000
16834750: svrsys.cpu.workload.drivers: [HanGuDriver]  icmAddrmap[0x9(9)]: 0x113000
16834750: svrsys.cpu.workload.drivers: [HanGuDriver]  icmAddrmap[0xa(10)]: 0x114000
16834750: svrsys.cpu.workload.drivers: [HanGuDriver]  icmAddrmap[0xb(11)]: 0x115000
16834750: svrsys.cpu.workload.drivers: [HanGuDriver]  icmAddrmap[0xc(12)]: 0x116000
16834750: svrsys.cpu.workload.drivers: [HanGuDriver]  icmAddrmap[0xd(13)]: 0x117000
16834750: svrsys.cpu.workload.drivers: [HanGuDriver]  icmAddrmap[0xe(14)]: 0x118000
16834750: svrsys.cpu.workload.drivers: [HanGuDriver]  icmAddrmap[0xf(15)]: 0x119000
16834750: svrsys.cpu.workload.drivers: [HanGuDriver]  pageNum 16, vAddr 0x0, pAddr 0x10a000
16834750: svrsys.cpu.workload.drivers: [HanGuDriver]  Start Write hcr
16834750: svrsys.cpu.workload.drivers: [HanGuDriver]  HGKFD_IOC_ALLOC_MTT mtt ICM mapping is written
17404250: cltsys.cpu.workload.drivers: [HanGuDriver]  ioctl : HGKFD_IOC_ALLOC_MTT.
17404250: cltsys.cpu.workload.drivers: [HanGuDriver]  HGKFD_IOC_ALLOC_MTT: vaddr: 0x6e1000, paddr: 0x106000 mtt_index 0
17404250: cltsys.cpu.workload.drivers: [HanGuDriver]  HGKFD_IOC_ALLOC_MTT mtt allocated
17404250: cltsys.cpu.workload.drivers: [HanGuDriver]  HGKFD_IOC_ALLOC_MTT mtt not mapped
17404250: cltsys.cpu.workload.drivers: [HanGuDriver]  rescMeta.start: 0x0, index 0x0, entrySize 8 icmVPage 0x0
17404250: cltsys.cpu.workload.drivers: [HanGuDriver]  icmAddrmap[0x0(0)]: 0x109000
17404250: cltsys.cpu.workload.drivers: [HanGuDriver]  icmAddrmap[0x1(1)]: 0x10a000
17404250: cltsys.cpu.workload.drivers: [HanGuDriver]  icmAddrmap[0x2(2)]: 0x10b000
17404250: cltsys.cpu.workload.drivers: [HanGuDriver]  icmAddrmap[0x3(3)]: 0x10c000
17404250: cltsys.cpu.workload.drivers: [HanGuDriver]  icmAddrmap[0x4(4)]: 0x10d000
17404250: cltsys.cpu.workload.drivers: [HanGuDriver]  icmAddrmap[0x5(5)]: 0x10e000
17404250: cltsys.cpu.workload.drivers: [HanGuDriver]  icmAddrmap[0x6(6)]: 0x10f000
17404250: cltsys.cpu.workload.drivers: [HanGuDriver]  icmAddrmap[0x7(7)]: 0x110000
17404250: cltsys.cpu.workload.drivers: [HanGuDriver]  icmAddrmap[0x8(8)]: 0x111000
17404250: cltsys.cpu.workload.drivers: [HanGuDriver]  icmAddrmap[0x9(9)]: 0x112000
17404250: cltsys.cpu.workload.drivers: [HanGuDriver]  icmAddrmap[0xa(10)]: 0x113000
17404250: cltsys.cpu.workload.drivers: [HanGuDriver]  icmAddrmap[0xb(11)]: 0x114000
17404250: cltsys.cpu.workload.drivers: [HanGuDriver]  icmAddrmap[0xc(12)]: 0x115000
17404250: cltsys.cpu.workload.drivers: [HanGuDriver]  icmAddrmap[0xd(13)]: 0x116000
17404250: cltsys.cpu.workload.drivers: [HanGuDriver]  icmAddrmap[0xe(14)]: 0x117000
17404250: cltsys.cpu.workload.drivers: [HanGuDriver]  icmAddrmap[0xf(15)]: 0x118000
17404250: cltsys.cpu.workload.drivers: [HanGuDriver]  pageNum 16, vAddr 0x0, pAddr 0x109000
17404250: cltsys.cpu.workload.drivers: [HanGuDriver]  Start Write hcr
17404250: cltsys.cpu.workload.drivers: [HanGuDriver]  HGKFD_IOC_ALLOC_MTT mtt ICM mapping is written
19623000: svrsys.cpu.workload.drivers: [HanGuDriver]  ioctl : HGKFD_IOC_WRITE_MTT.
19623000: svrsys.cpu.workload.drivers: [HanGuDriver]  Start Write hcr
20192500: cltsys.cpu.workload.drivers: [HanGuDriver]  ioctl : HGKFD_IOC_WRITE_MTT.
20192500: cltsys.cpu.workload.drivers: [HanGuDriver]  Start Write hcr
22598250: svrsys.cpu.workload.drivers: [HanGuDriver]  ioctl : HGKFD_IOC_ALLOC_MPT. batch_size 1
22598250: svrsys.cpu.workload.drivers: [HanGuDriver]  HGKFD_IOC_ALLOC_MPT: mpt_index 0 batch_size 1
22598250: svrsys.cpu.workload.drivers: [HanGuDriver]  get into ioctl HGKFD_IOC_ALLOC_MPT: mpt_start_index: 0
22598250: svrsys.cpu.workload.drivers: [HanGuDriver]  rescMeta.start: 0x800000, index 0x0, entrySize 32 icmVPage 0x800
22598250: svrsys.cpu.workload.drivers: [HanGuDriver]  icmAddrmap[0x800(0)]: 0x11a000
22598250: svrsys.cpu.workload.drivers: [HanGuDriver]  icmAddrmap[0x801(1)]: 0x11b000
22598250: svrsys.cpu.workload.drivers: [HanGuDriver]  icmAddrmap[0x802(2)]: 0x11c000
22598250: svrsys.cpu.workload.drivers: [HanGuDriver]  icmAddrmap[0x803(3)]: 0x11d000
22598250: svrsys.cpu.workload.drivers: [HanGuDriver]  icmAddrmap[0x804(4)]: 0x11e000
22598250: svrsys.cpu.workload.drivers: [HanGuDriver]  icmAddrmap[0x805(5)]: 0x11f000
22598250: svrsys.cpu.workload.drivers: [HanGuDriver]  icmAddrmap[0x806(6)]: 0x120000
22598250: svrsys.cpu.workload.drivers: [HanGuDriver]  icmAddrmap[0x807(7)]: 0x121000
22598250: svrsys.cpu.workload.drivers: [HanGuDriver]  icmAddrmap[0x808(8)]: 0x122000
22598250: svrsys.cpu.workload.drivers: [HanGuDriver]  icmAddrmap[0x809(9)]: 0x123000
22598250: svrsys.cpu.workload.drivers: [HanGuDriver]  icmAddrmap[0x80a(10)]: 0x124000
22598250: svrsys.cpu.workload.drivers: [HanGuDriver]  icmAddrmap[0x80b(11)]: 0x125000
22598250: svrsys.cpu.workload.drivers: [HanGuDriver]  icmAddrmap[0x80c(12)]: 0x126000
22598250: svrsys.cpu.workload.drivers: [HanGuDriver]  icmAddrmap[0x80d(13)]: 0x127000
22598250: svrsys.cpu.workload.drivers: [HanGuDriver]  icmAddrmap[0x80e(14)]: 0x128000
22598250: svrsys.cpu.workload.drivers: [HanGuDriver]  icmAddrmap[0x80f(15)]: 0x129000
22598250: svrsys.cpu.workload.drivers: [HanGuDriver]  pageNum 16, vAddr 0x800000, pAddr 0x11a000
22598250: svrsys.cpu.workload.drivers: [HanGuDriver]  Start Write hcr
23167750: cltsys.cpu.workload.drivers: [HanGuDriver]  ioctl : HGKFD_IOC_ALLOC_MPT. batch_size 1
23167750: cltsys.cpu.workload.drivers: [HanGuDriver]  HGKFD_IOC_ALLOC_MPT: mpt_index 0 batch_size 1
23167750: cltsys.cpu.workload.drivers: [HanGuDriver]  get into ioctl HGKFD_IOC_ALLOC_MPT: mpt_start_index: 0
23167750: cltsys.cpu.workload.drivers: [HanGuDriver]  rescMeta.start: 0x800000, index 0x0, entrySize 32 icmVPage 0x800
23167750: cltsys.cpu.workload.drivers: [HanGuDriver]  icmAddrmap[0x800(0)]: 0x119000
23167750: cltsys.cpu.workload.drivers: [HanGuDriver]  icmAddrmap[0x801(1)]: 0x11a000
23167750: cltsys.cpu.workload.drivers: [HanGuDriver]  icmAddrmap[0x802(2)]: 0x11b000
23167750: cltsys.cpu.workload.drivers: [HanGuDriver]  icmAddrmap[0x803(3)]: 0x11c000
23167750: cltsys.cpu.workload.drivers: [HanGuDriver]  icmAddrmap[0x804(4)]: 0x11d000
23167750: cltsys.cpu.workload.drivers: [HanGuDriver]  icmAddrmap[0x805(5)]: 0x11e000
23167750: cltsys.cpu.workload.drivers: [HanGuDriver]  icmAddrmap[0x806(6)]: 0x11f000
23167750: cltsys.cpu.workload.drivers: [HanGuDriver]  icmAddrmap[0x807(7)]: 0x120000
23167750: cltsys.cpu.workload.drivers: [HanGuDriver]  icmAddrmap[0x808(8)]: 0x121000
23167750: cltsys.cpu.workload.drivers: [HanGuDriver]  icmAddrmap[0x809(9)]: 0x122000
23167750: cltsys.cpu.workload.drivers: [HanGuDriver]  icmAddrmap[0x80a(10)]: 0x123000
23167750: cltsys.cpu.workload.drivers: [HanGuDriver]  icmAddrmap[0x80b(11)]: 0x124000
23167750: cltsys.cpu.workload.drivers: [HanGuDriver]  icmAddrmap[0x80c(12)]: 0x125000
23167750: cltsys.cpu.workload.drivers: [HanGuDriver]  icmAddrmap[0x80d(13)]: 0x126000
23167750: cltsys.cpu.workload.drivers: [HanGuDriver]  icmAddrmap[0x80e(14)]: 0x127000
23167750: cltsys.cpu.workload.drivers: [HanGuDriver]  icmAddrmap[0x80f(15)]: 0x128000
23167750: cltsys.cpu.workload.drivers: [HanGuDriver]  pageNum 16, vAddr 0x800000, pAddr 0x119000
23167750: cltsys.cpu.workload.drivers: [HanGuDriver]  Start Write hcr
25538500: svrsys.cpu.workload.drivers: [HanGuDriver]  ioctl : HGKFD_IOC_WRITE_MPT.
25538500: svrsys.cpu.workload.drivers: [HanGuDriver]  HGKFD_IOC_WRITE_MPT: mpt_index 0(0) mtt_index 0(0) batch_size 1
25538500: svrsys.cpu.workload.drivers: [HanGuDriver]  Start Write hcr
26108000: cltsys.cpu.workload.drivers: [HanGuDriver]  ioctl : HGKFD_IOC_WRITE_MPT.
26108000: cltsys.cpu.workload.drivers: [HanGuDriver]  HGKFD_IOC_WRITE_MPT: mpt_index 0(0) mtt_index 0(0) batch_size 1
26108000: cltsys.cpu.workload.drivers: [HanGuDriver]  Start Write hcr
28534500: svrsys.cpu.workload.drivers: [HanGuDriver]  ioctl : HGKFD_IOC_ALLOC_CQ.
28534500: svrsys.cpu.workload.drivers: [HanGuDriver]  rescMeta.start: 0x2800000, index 0x0, entrySize 16 icmVPage 0x2800
28534500: svrsys.cpu.workload.drivers: [HanGuDriver]  icmAddrmap[0x2800(0)]: 0x12b000
28534500: svrsys.cpu.workload.drivers: [HanGuDriver]  icmAddrmap[0x2801(1)]: 0x12c000
28534500: svrsys.cpu.workload.drivers: [HanGuDriver]  icmAddrmap[0x2802(2)]: 0x12d000
28534500: svrsys.cpu.workload.drivers: [HanGuDriver]  icmAddrmap[0x2803(3)]: 0x12e000
28534500: svrsys.cpu.workload.drivers: [HanGuDriver]  icmAddrmap[0x2804(4)]: 0x12f000
28534500: svrsys.cpu.workload.drivers: [HanGuDriver]  icmAddrmap[0x2805(5)]: 0x130000
28534500: svrsys.cpu.workload.drivers: [HanGuDriver]  icmAddrmap[0x2806(6)]: 0x131000
28534500: svrsys.cpu.workload.drivers: [HanGuDriver]  icmAddrmap[0x2807(7)]: 0x132000
28534500: svrsys.cpu.workload.drivers: [HanGuDriver]  icmAddrmap[0x2808(8)]: 0x133000
28534500: svrsys.cpu.workload.drivers: [HanGuDriver]  icmAddrmap[0x2809(9)]: 0x134000
28534500: svrsys.cpu.workload.drivers: [HanGuDriver]  icmAddrmap[0x280a(10)]: 0x135000
28534500: svrsys.cpu.workload.drivers: [HanGuDriver]  icmAddrmap[0x280b(11)]: 0x136000
28534500: svrsys.cpu.workload.drivers: [HanGuDriver]  icmAddrmap[0x280c(12)]: 0x137000
28534500: svrsys.cpu.workload.drivers: [HanGuDriver]  icmAddrmap[0x280d(13)]: 0x138000
28534500: svrsys.cpu.workload.drivers: [HanGuDriver]  icmAddrmap[0x280e(14)]: 0x139000
28534500: svrsys.cpu.workload.drivers: [HanGuDriver]  icmAddrmap[0x280f(15)]: 0x13a000
28534500: svrsys.cpu.workload.drivers: [HanGuDriver]  pageNum 16, vAddr 0x2800000, pAddr 0x12b000
28534500: svrsys.cpu.workload.drivers: [HanGuDriver]  Start Write hcr
29104000: cltsys.cpu.workload.drivers: [HanGuDriver]  ioctl : HGKFD_IOC_ALLOC_CQ.
29104000: cltsys.cpu.workload.drivers: [HanGuDriver]  rescMeta.start: 0x2800000, index 0x0, entrySize 16 icmVPage 0x2800
29104000: cltsys.cpu.workload.drivers: [HanGuDriver]  icmAddrmap[0x2800(0)]: 0x12a000
29104000: cltsys.cpu.workload.drivers: [HanGuDriver]  icmAddrmap[0x2801(1)]: 0x12b000
29104000: cltsys.cpu.workload.drivers: [HanGuDriver]  icmAddrmap[0x2802(2)]: 0x12c000
29104000: cltsys.cpu.workload.drivers: [HanGuDriver]  icmAddrmap[0x2803(3)]: 0x12d000
29104000: cltsys.cpu.workload.drivers: [HanGuDriver]  icmAddrmap[0x2804(4)]: 0x12e000
29104000: cltsys.cpu.workload.drivers: [HanGuDriver]  icmAddrmap[0x2805(5)]: 0x12f000
29104000: cltsys.cpu.workload.drivers: [HanGuDriver]  icmAddrmap[0x2806(6)]: 0x130000
29104000: cltsys.cpu.workload.drivers: [HanGuDriver]  icmAddrmap[0x2807(7)]: 0x131000
29104000: cltsys.cpu.workload.drivers: [HanGuDriver]  icmAddrmap[0x2808(8)]: 0x132000
29104000: cltsys.cpu.workload.drivers: [HanGuDriver]  icmAddrmap[0x2809(9)]: 0x133000
29104000: cltsys.cpu.workload.drivers: [HanGuDriver]  icmAddrmap[0x280a(10)]: 0x134000
29104000: cltsys.cpu.workload.drivers: [HanGuDriver]  icmAddrmap[0x280b(11)]: 0x135000
29104000: cltsys.cpu.workload.drivers: [HanGuDriver]  icmAddrmap[0x280c(12)]: 0x136000
29104000: cltsys.cpu.workload.drivers: [HanGuDriver]  icmAddrmap[0x280d(13)]: 0x137000
29104000: cltsys.cpu.workload.drivers: [HanGuDriver]  icmAddrmap[0x280e(14)]: 0x138000
29104000: cltsys.cpu.workload.drivers: [HanGuDriver]  icmAddrmap[0x280f(15)]: 0x139000
29104000: cltsys.cpu.workload.drivers: [HanGuDriver]  pageNum 16, vAddr 0x2800000, pAddr 0x12a000
29104000: cltsys.cpu.workload.drivers: [HanGuDriver]  Start Write hcr
32387750: svrsys.cpu.workload.drivers: [HanGuDriver]  ioctl : HGKFD_IOC_ALLOC_MTT.
32387750: svrsys.cpu.workload.drivers: [HanGuDriver]  HGKFD_IOC_ALLOC_MTT: vaddr: 0x6e4000, paddr: 0x109000 mtt_index 1
32387750: svrsys.cpu.workload.drivers: [HanGuDriver]  HGKFD_IOC_ALLOC_MTT mtt allocated
32957250: cltsys.cpu.workload.drivers: [HanGuDriver]  ioctl : HGKFD_IOC_ALLOC_MTT.
32957250: cltsys.cpu.workload.drivers: [HanGuDriver]  HGKFD_IOC_ALLOC_MTT: vaddr: 0x6e3000, paddr: 0x108000 mtt_index 1
32957250: cltsys.cpu.workload.drivers: [HanGuDriver]  HGKFD_IOC_ALLOC_MTT mtt allocated
35176000: svrsys.cpu.workload.drivers: [HanGuDriver]  ioctl : HGKFD_IOC_WRITE_MTT.
35176000: svrsys.cpu.workload.drivers: [HanGuDriver]  Start Write hcr
35745500: cltsys.cpu.workload.drivers: [HanGuDriver]  ioctl : HGKFD_IOC_WRITE_MTT.
35745500: cltsys.cpu.workload.drivers: [HanGuDriver]  Start Write hcr
38178750: svrsys.cpu.workload.drivers: [HanGuDriver]  ioctl : HGKFD_IOC_ALLOC_MPT. batch_size 1
38178750: svrsys.cpu.workload.drivers: [HanGuDriver]  HGKFD_IOC_ALLOC_MPT: mpt_index 1 batch_size 1
38178750: svrsys.cpu.workload.drivers: [HanGuDriver]  get into ioctl HGKFD_IOC_ALLOC_MPT: mpt_start_index: 1
38748250: cltsys.cpu.workload.drivers: [HanGuDriver]  ioctl : HGKFD_IOC_ALLOC_MPT. batch_size 1
38748250: cltsys.cpu.workload.drivers: [HanGuDriver]  HGKFD_IOC_ALLOC_MPT: mpt_index 1 batch_size 1
38748250: cltsys.cpu.workload.drivers: [HanGuDriver]  get into ioctl HGKFD_IOC_ALLOC_MPT: mpt_start_index: 1
41149250: svrsys.cpu.workload.drivers: [HanGuDriver]  ioctl : HGKFD_IOC_WRITE_MPT.
41149250: svrsys.cpu.workload.drivers: [HanGuDriver]  HGKFD_IOC_WRITE_MPT: mpt_index 1(1) mtt_index 1(1) batch_size 1
41149250: svrsys.cpu.workload.drivers: [HanGuDriver]  Start Write hcr
41718750: cltsys.cpu.workload.drivers: [HanGuDriver]  ioctl : HGKFD_IOC_WRITE_MPT.
41718750: cltsys.cpu.workload.drivers: [HanGuDriver]  HGKFD_IOC_WRITE_MPT: mpt_index 1(1) mtt_index 1(1) batch_size 1
41718750: cltsys.cpu.workload.drivers: [HanGuDriver]  Start Write hcr
44079750: svrsys.cpu.workload.drivers: [HanGuDriver]  ioctl : HGKFD_IOC_WRITE_CQC.
44079750: svrsys.cpu.workload.drivers: [HanGuDriver]  Start Write hcr
44649250: cltsys.cpu.workload.drivers: [HanGuDriver]  ioctl : HGKFD_IOC_WRITE_CQC.
44649250: cltsys.cpu.workload.drivers: [HanGuDriver]  Start Write hcr
47115000: svrsys.cpu.workload.drivers: [HanGuDriver]  ioctl : HGKFD_IOC_ALLOC_QP.
47115000: svrsys.cpu.workload.drivers: [HanGuDriver]  rescMeta.start: 0x3800000, index 0x0, entrySize 260 icmVPage 0x3800
47115000: svrsys.cpu.workload.drivers: [HanGuDriver]  icmAddrmap[0x3800(0)]: 0x13d000
47115000: svrsys.cpu.workload.drivers: [HanGuDriver]  icmAddrmap[0x3801(1)]: 0x13e000
47115000: svrsys.cpu.workload.drivers: [HanGuDriver]  icmAddrmap[0x3802(2)]: 0x13f000
47115000: svrsys.cpu.workload.drivers: [HanGuDriver]  icmAddrmap[0x3803(3)]: 0x140000
47115000: svrsys.cpu.workload.drivers: [HanGuDriver]  icmAddrmap[0x3804(4)]: 0x141000
47115000: svrsys.cpu.workload.drivers: [HanGuDriver]  icmAddrmap[0x3805(5)]: 0x142000
47115000: svrsys.cpu.workload.drivers: [HanGuDriver]  icmAddrmap[0x3806(6)]: 0x143000
47115000: svrsys.cpu.workload.drivers: [HanGuDriver]  icmAddrmap[0x3807(7)]: 0x144000
47115000: svrsys.cpu.workload.drivers: [HanGuDriver]  icmAddrmap[0x3808(8)]: 0x145000
47115000: svrsys.cpu.workload.drivers: [HanGuDriver]  icmAddrmap[0x3809(9)]: 0x146000
47115000: svrsys.cpu.workload.drivers: [HanGuDriver]  icmAddrmap[0x380a(10)]: 0x147000
47115000: svrsys.cpu.workload.drivers: [HanGuDriver]  icmAddrmap[0x380b(11)]: 0x148000
47115000: svrsys.cpu.workload.drivers: [HanGuDriver]  icmAddrmap[0x380c(12)]: 0x149000
47115000: svrsys.cpu.workload.drivers: [HanGuDriver]  icmAddrmap[0x380d(13)]: 0x14a000
47115000: svrsys.cpu.workload.drivers: [HanGuDriver]  icmAddrmap[0x380e(14)]: 0x14b000
47115000: svrsys.cpu.workload.drivers: [HanGuDriver]  icmAddrmap[0x380f(15)]: 0x14c000
47115000: svrsys.cpu.workload.drivers: [HanGuDriver]  pageNum 16, vAddr 0x3800000, pAddr 0x13d000
47115000: svrsys.cpu.workload.drivers: [HanGuDriver]  Start Write hcr
47115000: svrsys.cpu.workload.drivers: [HanGuDriver]  ioctl : HGKFD_IOC_ALLOC_QP, qp_num: 0x0(0), batch_size 1
47684500: cltsys.cpu.workload.drivers: [HanGuDriver]  ioctl : HGKFD_IOC_ALLOC_QP.
47684500: cltsys.cpu.workload.drivers: [HanGuDriver]  rescMeta.start: 0x3800000, index 0x0, entrySize 260 icmVPage 0x3800
47684500: cltsys.cpu.workload.drivers: [HanGuDriver]  icmAddrmap[0x3800(0)]: 0x13c000
47684500: cltsys.cpu.workload.drivers: [HanGuDriver]  icmAddrmap[0x3801(1)]: 0x13d000
47684500: cltsys.cpu.workload.drivers: [HanGuDriver]  icmAddrmap[0x3802(2)]: 0x13e000
47684500: cltsys.cpu.workload.drivers: [HanGuDriver]  icmAddrmap[0x3803(3)]: 0x13f000
47684500: cltsys.cpu.workload.drivers: [HanGuDriver]  icmAddrmap[0x3804(4)]: 0x140000
47684500: cltsys.cpu.workload.drivers: [HanGuDriver]  icmAddrmap[0x3805(5)]: 0x141000
47684500: cltsys.cpu.workload.drivers: [HanGuDriver]  icmAddrmap[0x3806(6)]: 0x142000
47684500: cltsys.cpu.workload.drivers: [HanGuDriver]  icmAddrmap[0x3807(7)]: 0x143000
47684500: cltsys.cpu.workload.drivers: [HanGuDriver]  icmAddrmap[0x3808(8)]: 0x144000
47684500: cltsys.cpu.workload.drivers: [HanGuDriver]  icmAddrmap[0x3809(9)]: 0x145000
47684500: cltsys.cpu.workload.drivers: [HanGuDriver]  icmAddrmap[0x380a(10)]: 0x146000
47684500: cltsys.cpu.workload.drivers: [HanGuDriver]  icmAddrmap[0x380b(11)]: 0x147000
47684500: cltsys.cpu.workload.drivers: [HanGuDriver]  icmAddrmap[0x380c(12)]: 0x148000
47684500: cltsys.cpu.workload.drivers: [HanGuDriver]  icmAddrmap[0x380d(13)]: 0x149000
47684500: cltsys.cpu.workload.drivers: [HanGuDriver]  icmAddrmap[0x380e(14)]: 0x14a000
47684500: cltsys.cpu.workload.drivers: [HanGuDriver]  icmAddrmap[0x380f(15)]: 0x14b000
47684500: cltsys.cpu.workload.drivers: [HanGuDriver]  pageNum 16, vAddr 0x3800000, pAddr 0x13c000
47684500: cltsys.cpu.workload.drivers: [HanGuDriver]  Start Write hcr
47684500: cltsys.cpu.workload.drivers: [HanGuDriver]  ioctl : HGKFD_IOC_ALLOC_QP, qp_num: 0x0(0), batch_size 1
50846750: svrsys.cpu.workload.drivers: [HanGuDriver]  ioctl : HGKFD_IOC_ALLOC_MTT.
50846750: svrsys.cpu.workload.drivers: [HanGuDriver]  HGKFD_IOC_ALLOC_MTT: vaddr: 0x6e6000, paddr: 0x12a000 mtt_index 2
50846750: svrsys.cpu.workload.drivers: [HanGuDriver]  HGKFD_IOC_ALLOC_MTT mtt allocated
51416250: cltsys.cpu.workload.drivers: [HanGuDriver]  ioctl : HGKFD_IOC_ALLOC_MTT.
51416250: cltsys.cpu.workload.drivers: [HanGuDriver]  HGKFD_IOC_ALLOC_MTT: vaddr: 0x6e5000, paddr: 0x129000 mtt_index 2
51416250: cltsys.cpu.workload.drivers: [HanGuDriver]  HGKFD_IOC_ALLOC_MTT mtt allocated
53635000: svrsys.cpu.workload.drivers: [HanGuDriver]  ioctl : HGKFD_IOC_WRITE_MTT.
53635000: svrsys.cpu.workload.drivers: [HanGuDriver]  Start Write hcr
54204500: cltsys.cpu.workload.drivers: [HanGuDriver]  ioctl : HGKFD_IOC_WRITE_MTT.
54204500: cltsys.cpu.workload.drivers: [HanGuDriver]  Start Write hcr
56637750: svrsys.cpu.workload.drivers: [HanGuDriver]  ioctl : HGKFD_IOC_ALLOC_MPT. batch_size 1
56637750: svrsys.cpu.workload.drivers: [HanGuDriver]  HGKFD_IOC_ALLOC_MPT: mpt_index 2 batch_size 1
56637750: svrsys.cpu.workload.drivers: [HanGuDriver]  get into ioctl HGKFD_IOC_ALLOC_MPT: mpt_start_index: 2
57207250: cltsys.cpu.workload.drivers: [HanGuDriver]  ioctl : HGKFD_IOC_ALLOC_MPT. batch_size 1
57207250: cltsys.cpu.workload.drivers: [HanGuDriver]  HGKFD_IOC_ALLOC_MPT: mpt_index 2 batch_size 1
57207250: cltsys.cpu.workload.drivers: [HanGuDriver]  get into ioctl HGKFD_IOC_ALLOC_MPT: mpt_start_index: 2
59613500: svrsys.cpu.workload.drivers: [HanGuDriver]  ioctl : HGKFD_IOC_WRITE_MPT.
59613500: svrsys.cpu.workload.drivers: [HanGuDriver]  HGKFD_IOC_WRITE_MPT: mpt_index 2(2) mtt_index 2(2) batch_size 1
59613500: svrsys.cpu.workload.drivers: [HanGuDriver]  Start Write hcr
60183000: cltsys.cpu.workload.drivers: [HanGuDriver]  ioctl : HGKFD_IOC_WRITE_MPT.
60183000: cltsys.cpu.workload.drivers: [HanGuDriver]  HGKFD_IOC_WRITE_MPT: mpt_index 2(2) mtt_index 2(2) batch_size 1
60183000: cltsys.cpu.workload.drivers: [HanGuDriver]  Start Write hcr
63397250: svrsys.cpu.workload.drivers: [HanGuDriver]  ioctl : HGKFD_IOC_ALLOC_MTT.
63397250: svrsys.cpu.workload.drivers: [HanGuDriver]  HGKFD_IOC_ALLOC_MTT: vaddr: 0x6e8000, paddr: 0x13c000 mtt_index 3
63397250: svrsys.cpu.workload.drivers: [HanGuDriver]  HGKFD_IOC_ALLOC_MTT mtt allocated
63966750: cltsys.cpu.workload.drivers: [HanGuDriver]  ioctl : HGKFD_IOC_ALLOC_MTT.
63966750: cltsys.cpu.workload.drivers: [HanGuDriver]  HGKFD_IOC_ALLOC_MTT: vaddr: 0x6e7000, paddr: 0x13b000 mtt_index 3
63966750: cltsys.cpu.workload.drivers: [HanGuDriver]  HGKFD_IOC_ALLOC_MTT mtt allocated
66185500: svrsys.cpu.workload.drivers: [HanGuDriver]  ioctl : HGKFD_IOC_WRITE_MTT.
66185500: svrsys.cpu.workload.drivers: [HanGuDriver]  Start Write hcr
66755000: cltsys.cpu.workload.drivers: [HanGuDriver]  ioctl : HGKFD_IOC_WRITE_MTT.
66755000: cltsys.cpu.workload.drivers: [HanGuDriver]  Start Write hcr
69188250: svrsys.cpu.workload.drivers: [HanGuDriver]  ioctl : HGKFD_IOC_ALLOC_MPT. batch_size 1
69188250: svrsys.cpu.workload.drivers: [HanGuDriver]  HGKFD_IOC_ALLOC_MPT: mpt_index 3 batch_size 1
69188250: svrsys.cpu.workload.drivers: [HanGuDriver]  get into ioctl HGKFD_IOC_ALLOC_MPT: mpt_start_index: 3
69757750: cltsys.cpu.workload.drivers: [HanGuDriver]  ioctl : HGKFD_IOC_ALLOC_MPT. batch_size 1
69757750: cltsys.cpu.workload.drivers: [HanGuDriver]  HGKFD_IOC_ALLOC_MPT: mpt_index 3 batch_size 1
69757750: cltsys.cpu.workload.drivers: [HanGuDriver]  get into ioctl HGKFD_IOC_ALLOC_MPT: mpt_start_index: 3
72158750: svrsys.cpu.workload.drivers: [HanGuDriver]  ioctl : HGKFD_IOC_WRITE_MPT.
72158750: svrsys.cpu.workload.drivers: [HanGuDriver]  HGKFD_IOC_WRITE_MPT: mpt_index 3(3) mtt_index 3(3) batch_size 1
72158750: svrsys.cpu.workload.drivers: [HanGuDriver]  Start Write hcr
72728250: cltsys.cpu.workload.drivers: [HanGuDriver]  ioctl : HGKFD_IOC_WRITE_MPT.
72728250: cltsys.cpu.workload.drivers: [HanGuDriver]  HGKFD_IOC_WRITE_MPT: mpt_index 3(3) mtt_index 3(3) batch_size 1
72728250: cltsys.cpu.workload.drivers: [HanGuDriver]  Start Write hcr
76103250: svrsys.cpu.workload.drivers: [HanGuDriver]  ioctl : HGKFD_IOC_WRITE_QPC
76103250: svrsys.cpu.workload.drivers: [HanGuDriver]  writeQpc: qpn: 0x0
76103250: svrsys.cpu.workload.drivers: [HanGuDriver]  writeQpc: args->batch_size: 1
76103250: svrsys.cpu.workload.drivers: [HanGuDriver]  writeQpc: args->batch_size1: 1
76103250: svrsys.cpu.workload.drivers: [HanGuDriver]  Start Write hcr
76672750: cltsys.cpu.workload.drivers: [HanGuDriver]  ioctl : HGKFD_IOC_WRITE_QPC
76672750: cltsys.cpu.workload.drivers: [HanGuDriver]  writeQpc: qpn: 0x0
76672750: cltsys.cpu.workload.drivers: [HanGuDriver]  writeQpc: args->batch_size: 1
76672750: cltsys.cpu.workload.drivers: [HanGuDriver]  writeQpc: args->batch_size1: 1
76672750: cltsys.cpu.workload.drivers: [HanGuDriver]  Start Write hcr
78883500: svrsys.cpu.workload.drivers: [HanGuDriver] ioctl: HGKFD_IOC_UPDATE_QP_WEIGHT
78883500: svrsys.cpu.workload.drivers: [HanGuDriver] qpn: 0x0, old QP weight: 0, new QP weight: 10, group ID: 0
78883500: svrsys.cpu.workload.drivers: [HanGuDriver] into loop!
78883500: svrsys.cpu.workload.drivers: [HanGuDriver] into update QP weight! setGroupNum: 1
78883500: svrsys.cpu.workload.drivers: [HanGuDriver] update granularity when update QP weight! Group ID: 0, group weight: 10, group granularity: 81920, big N: 819200, group weight sum: 10, qp weight sum: 10
78883500: svrsys.cpu.workload.drivers: [HanGuDriver] ---------------------------
78883500: svrsys.cpu.workload.drivers: [HanGuDriver] print QoS info! group num: 1
78883500: svrsys.cpu.workload.drivers: [HanGuDriver] ---------------------------
78883500: svrsys.cpu.workload.drivers: [HanGuDriver]  Start Write hcr
79453000: cltsys.cpu.workload.drivers: [HanGuDriver] ioctl: HGKFD_IOC_UPDATE_QP_WEIGHT
79453000: cltsys.cpu.workload.drivers: [HanGuDriver] qpn: 0x0, old QP weight: 0, new QP weight: 10, group ID: 0
79453000: cltsys.cpu.workload.drivers: [HanGuDriver] into loop!
79453000: cltsys.cpu.workload.drivers: [HanGuDriver] into update QP weight! setGroupNum: 1
79453000: cltsys.cpu.workload.drivers: [HanGuDriver] update granularity when update QP weight! Group ID: 0, group weight: 10, group granularity: 81920, big N: 819200, group weight sum: 10, qp weight sum: 10
79453000: cltsys.cpu.workload.drivers: [HanGuDriver] ---------------------------
79453000: cltsys.cpu.workload.drivers: [HanGuDriver] print QoS info! group num: 1
79453000: cltsys.cpu.workload.drivers: [HanGuDriver] ---------------------------
79453000: cltsys.cpu.workload.drivers: [HanGuDriver]  Start Write hcr
157014250: svrsys.cpu.workload.drivers: [HanGuDriver]  ioctl : HGKFD_IOC_ALLOC_MTT.
157014250: svrsys.cpu.workload.drivers: [HanGuDriver]  HGKFD_IOC_ALLOC_MTT: vaddr: 0x7ffff7edc000, paddr: 0x152000 mtt_index 4
157014250: svrsys.cpu.workload.drivers: [HanGuDriver]  HGKFD_IOC_ALLOC_MTT mtt allocated
157572750: cltsys.cpu.workload.drivers: [HanGuDriver]  ioctl : HGKFD_IOC_ALLOC_MTT.
157572750: cltsys.cpu.workload.drivers: [HanGuDriver]  HGKFD_IOC_ALLOC_MTT: vaddr: 0x7ffff7edc000, paddr: 0x151000 mtt_index 4
157572750: cltsys.cpu.workload.drivers: [HanGuDriver]  HGKFD_IOC_ALLOC_MTT mtt allocated
159802500: svrsys.cpu.workload.drivers: [HanGuDriver]  ioctl : HGKFD_IOC_WRITE_MTT.
159802500: svrsys.cpu.workload.drivers: [HanGuDriver]  Start Write hcr
160361000: cltsys.cpu.workload.drivers: [HanGuDriver]  ioctl : HGKFD_IOC_WRITE_MTT.
160361000: cltsys.cpu.workload.drivers: [HanGuDriver]  Start Write hcr
162820750: svrsys.cpu.workload.drivers: [HanGuDriver]  ioctl : HGKFD_IOC_ALLOC_MPT. batch_size 1
162820750: svrsys.cpu.workload.drivers: [HanGuDriver]  HGKFD_IOC_ALLOC_MPT: mpt_index 4 batch_size 1
162820750: svrsys.cpu.workload.drivers: [HanGuDriver]  get into ioctl HGKFD_IOC_ALLOC_MPT: mpt_start_index: 4
163376500: cltsys.cpu.workload.drivers: [HanGuDriver]  ioctl : HGKFD_IOC_ALLOC_MPT. batch_size 1
163376500: cltsys.cpu.workload.drivers: [HanGuDriver]  HGKFD_IOC_ALLOC_MPT: mpt_index 4 batch_size 1
163376500: cltsys.cpu.workload.drivers: [HanGuDriver]  get into ioctl HGKFD_IOC_ALLOC_MPT: mpt_start_index: 4
165787750: svrsys.cpu.workload.drivers: [HanGuDriver]  ioctl : HGKFD_IOC_WRITE_MPT.
165787750: svrsys.cpu.workload.drivers: [HanGuDriver]  HGKFD_IOC_WRITE_MPT: mpt_index 4(4) mtt_index 4(4) batch_size 1
165787750: svrsys.cpu.workload.drivers: [HanGuDriver]  Start Write hcr
166343500: cltsys.cpu.workload.drivers: [HanGuDriver]  ioctl : HGKFD_IOC_WRITE_MPT.
166343500: cltsys.cpu.workload.drivers: [HanGuDriver]  HGKFD_IOC_WRITE_MPT: mpt_index 4(4) mtt_index 4(4) batch_size 1
166343500: cltsys.cpu.workload.drivers: [HanGuDriver]  Start Write hcr
168841750: svrsys.cpu.workload.drivers: [HanGuDriver]  ioctl : HGKFD_IOC_ALLOC_CQ.
169397500: cltsys.cpu.workload.drivers: [HanGuDriver]  ioctl : HGKFD_IOC_ALLOC_CQ.
172727500: svrsys.cpu.workload.drivers: [HanGuDriver]  ioctl : HGKFD_IOC_ALLOC_MTT.
172727500: svrsys.cpu.workload.drivers: [HanGuDriver]  HGKFD_IOC_ALLOC_MTT: vaddr: 0x6ea000, paddr: 0x14e000 mtt_index 5
172727500: svrsys.cpu.workload.drivers: [HanGuDriver]  HGKFD_IOC_ALLOC_MTT mtt allocated
173283250: cltsys.cpu.workload.drivers: [HanGuDriver]  ioctl : HGKFD_IOC_ALLOC_MTT.
173283250: cltsys.cpu.workload.drivers: [HanGuDriver]  HGKFD_IOC_ALLOC_MTT: vaddr: 0x6e9000, paddr: 0x14d000 mtt_index 5
173283250: cltsys.cpu.workload.drivers: [HanGuDriver]  HGKFD_IOC_ALLOC_MTT mtt allocated
175515750: svrsys.cpu.workload.drivers: [HanGuDriver]  ioctl : HGKFD_IOC_WRITE_MTT.
175515750: svrsys.cpu.workload.drivers: [HanGuDriver]  Start Write hcr
176071500: cltsys.cpu.workload.drivers: [HanGuDriver]  ioctl : HGKFD_IOC_WRITE_MTT.
176071500: cltsys.cpu.workload.drivers: [HanGuDriver]  Start Write hcr
178525750: svrsys.cpu.workload.drivers: [HanGuDriver]  ioctl : HGKFD_IOC_ALLOC_MPT. batch_size 1
178525750: svrsys.cpu.workload.drivers: [HanGuDriver]  HGKFD_IOC_ALLOC_MPT: mpt_index 5 batch_size 1
178525750: svrsys.cpu.workload.drivers: [HanGuDriver]  get into ioctl HGKFD_IOC_ALLOC_MPT: mpt_start_index: 5
179078750: cltsys.cpu.workload.drivers: [HanGuDriver]  ioctl : HGKFD_IOC_ALLOC_MPT. batch_size 1
179078750: cltsys.cpu.workload.drivers: [HanGuDriver]  HGKFD_IOC_ALLOC_MPT: mpt_index 5 batch_size 1
179078750: cltsys.cpu.workload.drivers: [HanGuDriver]  get into ioctl HGKFD_IOC_ALLOC_MPT: mpt_start_index: 5
181493250: svrsys.cpu.workload.drivers: [HanGuDriver]  ioctl : HGKFD_IOC_WRITE_MPT.
181493250: svrsys.cpu.workload.drivers: [HanGuDriver]  HGKFD_IOC_WRITE_MPT: mpt_index 5(5) mtt_index 5(5) batch_size 1
181493250: svrsys.cpu.workload.drivers: [HanGuDriver]  Start Write hcr
182046250: cltsys.cpu.workload.drivers: [HanGuDriver]  ioctl : HGKFD_IOC_WRITE_MPT.
182046250: cltsys.cpu.workload.drivers: [HanGuDriver]  HGKFD_IOC_WRITE_MPT: mpt_index 5(5) mtt_index 5(5) batch_size 1
182046250: cltsys.cpu.workload.drivers: [HanGuDriver]  Start Write hcr
184423750: svrsys.cpu.workload.drivers: [HanGuDriver]  ioctl : HGKFD_IOC_WRITE_CQC.
184423750: svrsys.cpu.workload.drivers: [HanGuDriver]  Start Write hcr
184976750: cltsys.cpu.workload.drivers: [HanGuDriver]  ioctl : HGKFD_IOC_WRITE_CQC.
184976750: cltsys.cpu.workload.drivers: [HanGuDriver]  Start Write hcr
187425250: svrsys.cpu.workload.drivers: [HanGuDriver]  ioctl : HGKFD_IOC_ALLOC_QP.
187425250: svrsys.cpu.workload.drivers: [HanGuDriver]  ioctl : HGKFD_IOC_ALLOC_QP, qp_num: 0x1(1), batch_size 210
187978250: cltsys.cpu.workload.drivers: [HanGuDriver]  ioctl : HGKFD_IOC_ALLOC_QP.
187978250: cltsys.cpu.workload.drivers: [HanGuDriver]  ioctl : HGKFD_IOC_ALLOC_QP, qp_num: 0x1(1), batch_size 215
571315750: svrsys.cpu.workload.drivers: [HanGuDriver]  ioctl : HGKFD_IOC_ALLOC_MTT.
571315750: svrsys.cpu.workload.drivers: [HanGuDriver]  HGKFD_IOC_ALLOC_MTT: vaddr: 0x6fb000, paddr: 0x25a000 mtt_index 6
571315750: svrsys.cpu.workload.drivers: [HanGuDriver]  HGKFD_IOC_ALLOC_MTT: vaddr: 0x6fd000, paddr: 0x25c000 mtt_index 7
571315750: svrsys.cpu.workload.drivers: [HanGuDriver]  HGKFD_IOC_ALLOC_MTT: vaddr: 0x6ff000, paddr: 0x25e000 mtt_index 8
571315750: svrsys.cpu.workload.drivers: [HanGuDriver]  HGKFD_IOC_ALLOC_MTT: vaddr: 0x701000, paddr: 0x260000 mtt_index 9
571315750: svrsys.cpu.workload.drivers: [HanGuDriver]  HGKFD_IOC_ALLOC_MTT: vaddr: 0x703000, paddr: 0x262000 mtt_index 10
571315750: svrsys.cpu.workload.drivers: [HanGuDriver]  HGKFD_IOC_ALLOC_MTT: vaddr: 0x705000, paddr: 0x264000 mtt_index 11
571315750: svrsys.cpu.workload.drivers: [HanGuDriver]  HGKFD_IOC_ALLOC_MTT: vaddr: 0x707000, paddr: 0x266000 mtt_index 12
571315750: svrsys.cpu.workload.drivers: [HanGuDriver]  HGKFD_IOC_ALLOC_MTT: vaddr: 0x709000, paddr: 0x268000 mtt_index 13
571315750: svrsys.cpu.workload.drivers: [HanGuDriver]  HGKFD_IOC_ALLOC_MTT: vaddr: 0x70b000, paddr: 0x26a000 mtt_index 14
571315750: svrsys.cpu.workload.drivers: [HanGuDriver]  HGKFD_IOC_ALLOC_MTT: vaddr: 0x70d000, paddr: 0x26c000 mtt_index 15
571315750: svrsys.cpu.workload.drivers: [HanGuDriver]  HGKFD_IOC_ALLOC_MTT: vaddr: 0x70f000, paddr: 0x26e000 mtt_index 16
571315750: svrsys.cpu.workload.drivers: [HanGuDriver]  HGKFD_IOC_ALLOC_MTT: vaddr: 0x711000, paddr: 0x270000 mtt_index 17
571315750: svrsys.cpu.workload.drivers: [HanGuDriver]  HGKFD_IOC_ALLOC_MTT: vaddr: 0x713000, paddr: 0x272000 mtt_index 18
571315750: svrsys.cpu.workload.drivers: [HanGuDriver]  HGKFD_IOC_ALLOC_MTT: vaddr: 0x715000, paddr: 0x274000 mtt_index 19
571315750: svrsys.cpu.workload.drivers: [HanGuDriver]  HGKFD_IOC_ALLOC_MTT: vaddr: 0x717000, paddr: 0x276000 mtt_index 20
571315750: svrsys.cpu.workload.drivers: [HanGuDriver]  HGKFD_IOC_ALLOC_MTT: vaddr: 0x719000, paddr: 0x278000 mtt_index 21
571315750: svrsys.cpu.workload.drivers: [HanGuDriver]  HGKFD_IOC_ALLOC_MTT: vaddr: 0x71b000, paddr: 0x27a000 mtt_index 22
571315750: svrsys.cpu.workload.drivers: [HanGuDriver]  HGKFD_IOC_ALLOC_MTT: vaddr: 0x71d000, paddr: 0x27c000 mtt_index 23
571315750: svrsys.cpu.workload.drivers: [HanGuDriver]  HGKFD_IOC_ALLOC_MTT: vaddr: 0x71f000, paddr: 0x27e000 mtt_index 24
571315750: svrsys.cpu.workload.drivers: [HanGuDriver]  HGKFD_IOC_ALLOC_MTT: vaddr: 0x721000, paddr: 0x280000 mtt_index 25
571315750: svrsys.cpu.workload.drivers: [HanGuDriver]  HGKFD_IOC_ALLOC_MTT: vaddr: 0x723000, paddr: 0x282000 mtt_index 26
571315750: svrsys.cpu.workload.drivers: [HanGuDriver]  HGKFD_IOC_ALLOC_MTT: vaddr: 0x725000, paddr: 0x284000 mtt_index 27
571315750: svrsys.cpu.workload.drivers: [HanGuDriver]  HGKFD_IOC_ALLOC_MTT: vaddr: 0x727000, paddr: 0x286000 mtt_index 28
571315750: svrsys.cpu.workload.drivers: [HanGuDriver]  HGKFD_IOC_ALLOC_MTT: vaddr: 0x729000, paddr: 0x288000 mtt_index 29
571315750: svrsys.cpu.workload.drivers: [HanGuDriver]  HGKFD_IOC_ALLOC_MTT: vaddr: 0x72b000, paddr: 0x28a000 mtt_index 30
571315750: svrsys.cpu.workload.drivers: [HanGuDriver]  HGKFD_IOC_ALLOC_MTT: vaddr: 0x72d000, paddr: 0x28c000 mtt_index 31
571315750: svrsys.cpu.workload.drivers: [HanGuDriver]  HGKFD_IOC_ALLOC_MTT: vaddr: 0x72f000, paddr: 0x28e000 mtt_index 32
571315750: svrsys.cpu.workload.drivers: [HanGuDriver]  HGKFD_IOC_ALLOC_MTT: vaddr: 0x731000, paddr: 0x290000 mtt_index 33
571315750: svrsys.cpu.workload.drivers: [HanGuDriver]  HGKFD_IOC_ALLOC_MTT: vaddr: 0x733000, paddr: 0x292000 mtt_index 34
571315750: svrsys.cpu.workload.drivers: [HanGuDriver]  HGKFD_IOC_ALLOC_MTT: vaddr: 0x735000, paddr: 0x294000 mtt_index 35
571315750: svrsys.cpu.workload.drivers: [HanGuDriver]  HGKFD_IOC_ALLOC_MTT: vaddr: 0x737000, paddr: 0x296000 mtt_index 36
571315750: svrsys.cpu.workload.drivers: [HanGuDriver]  HGKFD_IOC_ALLOC_MTT: vaddr: 0x739000, paddr: 0x298000 mtt_index 37
571315750: svrsys.cpu.workload.drivers: [HanGuDriver]  HGKFD_IOC_ALLOC_MTT: vaddr: 0x73b000, paddr: 0x29a000 mtt_index 38
571315750: svrsys.cpu.workload.drivers: [HanGuDriver]  HGKFD_IOC_ALLOC_MTT: vaddr: 0x73d000, paddr: 0x29c000 mtt_index 39
571315750: svrsys.cpu.workload.drivers: [HanGuDriver]  HGKFD_IOC_ALLOC_MTT: vaddr: 0x73f000, paddr: 0x29e000 mtt_index 40
571315750: svrsys.cpu.workload.drivers: [HanGuDriver]  HGKFD_IOC_ALLOC_MTT: vaddr: 0x741000, paddr: 0x2a0000 mtt_index 41
571315750: svrsys.cpu.workload.drivers: [HanGuDriver]  HGKFD_IOC_ALLOC_MTT: vaddr: 0x743000, paddr: 0x2a2000 mtt_index 42
571315750: svrsys.cpu.workload.drivers: [HanGuDriver]  HGKFD_IOC_ALLOC_MTT: vaddr: 0x745000, paddr: 0x2a4000 mtt_index 43
571315750: svrsys.cpu.workload.drivers: [HanGuDriver]  HGKFD_IOC_ALLOC_MTT: vaddr: 0x747000, paddr: 0x2a6000 mtt_index 44
571315750: svrsys.cpu.workload.drivers: [HanGuDriver]  HGKFD_IOC_ALLOC_MTT: vaddr: 0x749000, paddr: 0x2a8000 mtt_index 45
571315750: svrsys.cpu.workload.drivers: [HanGuDriver]  HGKFD_IOC_ALLOC_MTT: vaddr: 0x74b000, paddr: 0x2aa000 mtt_index 46
571315750: svrsys.cpu.workload.drivers: [HanGuDriver]  HGKFD_IOC_ALLOC_MTT: vaddr: 0x74d000, paddr: 0x2ac000 mtt_index 47
571315750: svrsys.cpu.workload.drivers: [HanGuDriver]  HGKFD_IOC_ALLOC_MTT: vaddr: 0x74f000, paddr: 0x2ae000 mtt_index 48
571315750: svrsys.cpu.workload.drivers: [HanGuDriver]  HGKFD_IOC_ALLOC_MTT: vaddr: 0x751000, paddr: 0x2b0000 mtt_index 49
571315750: svrsys.cpu.workload.drivers: [HanGuDriver]  HGKFD_IOC_ALLOC_MTT: vaddr: 0x753000, paddr: 0x2b2000 mtt_index 50
571315750: svrsys.cpu.workload.drivers: [HanGuDriver]  HGKFD_IOC_ALLOC_MTT: vaddr: 0x755000, paddr: 0x2b4000 mtt_index 51
571315750: svrsys.cpu.workload.drivers: [HanGuDriver]  HGKFD_IOC_ALLOC_MTT: vaddr: 0x757000, paddr: 0x2b6000 mtt_index 52
571315750: svrsys.cpu.workload.drivers: [HanGuDriver]  HGKFD_IOC_ALLOC_MTT: vaddr: 0x759000, paddr: 0x2b8000 mtt_index 53
571315750: svrsys.cpu.workload.drivers: [HanGuDriver]  HGKFD_IOC_ALLOC_MTT: vaddr: 0x75b000, paddr: 0x2bb000 mtt_index 54
571315750: svrsys.cpu.workload.drivers: [HanGuDriver]  HGKFD_IOC_ALLOC_MTT: vaddr: 0x75d000, paddr: 0x2bd000 mtt_index 55
571315750: svrsys.cpu.workload.drivers: [HanGuDriver]  HGKFD_IOC_ALLOC_MTT: vaddr: 0x75f000, paddr: 0x2bf000 mtt_index 56
571315750: svrsys.cpu.workload.drivers: [HanGuDriver]  HGKFD_IOC_ALLOC_MTT: vaddr: 0x761000, paddr: 0x2c1000 mtt_index 57
571315750: svrsys.cpu.workload.drivers: [HanGuDriver]  HGKFD_IOC_ALLOC_MTT: vaddr: 0x763000, paddr: 0x2c3000 mtt_index 58
571315750: svrsys.cpu.workload.drivers: [HanGuDriver]  HGKFD_IOC_ALLOC_MTT: vaddr: 0x765000, paddr: 0x2c5000 mtt_index 59
571315750: svrsys.cpu.workload.drivers: [HanGuDriver]  HGKFD_IOC_ALLOC_MTT: vaddr: 0x767000, paddr: 0x2c7000 mtt_index 60
571315750: svrsys.cpu.workload.drivers: [HanGuDriver]  HGKFD_IOC_ALLOC_MTT: vaddr: 0x769000, paddr: 0x2c9000 mtt_index 61
571315750: svrsys.cpu.workload.drivers: [HanGuDriver]  HGKFD_IOC_ALLOC_MTT: vaddr: 0x76b000, paddr: 0x2cb000 mtt_index 62
571315750: svrsys.cpu.workload.drivers: [HanGuDriver]  HGKFD_IOC_ALLOC_MTT: vaddr: 0x76d000, paddr: 0x2cd000 mtt_index 63
571315750: svrsys.cpu.workload.drivers: [HanGuDriver]  HGKFD_IOC_ALLOC_MTT: vaddr: 0x76f000, paddr: 0x2cf000 mtt_index 64
571315750: svrsys.cpu.workload.drivers: [HanGuDriver]  HGKFD_IOC_ALLOC_MTT: vaddr: 0x771000, paddr: 0x2d1000 mtt_index 65
571315750: svrsys.cpu.workload.drivers: [HanGuDriver]  HGKFD_IOC_ALLOC_MTT: vaddr: 0x773000, paddr: 0x2d3000 mtt_index 66
571315750: svrsys.cpu.workload.drivers: [HanGuDriver]  HGKFD_IOC_ALLOC_MTT: vaddr: 0x775000, paddr: 0x2d5000 mtt_index 67
571315750: svrsys.cpu.workload.drivers: [HanGuDriver]  HGKFD_IOC_ALLOC_MTT: vaddr: 0x777000, paddr: 0x2d7000 mtt_index 68
571315750: svrsys.cpu.workload.drivers: [HanGuDriver]  HGKFD_IOC_ALLOC_MTT: vaddr: 0x779000, paddr: 0x2d9000 mtt_index 69
571315750: svrsys.cpu.workload.drivers: [HanGuDriver]  HGKFD_IOC_ALLOC_MTT: vaddr: 0x77b000, paddr: 0x2db000 mtt_index 70
571315750: svrsys.cpu.workload.drivers: [HanGuDriver]  HGKFD_IOC_ALLOC_MTT: vaddr: 0x77d000, paddr: 0x2dd000 mtt_index 71
571315750: svrsys.cpu.workload.drivers: [HanGuDriver]  HGKFD_IOC_ALLOC_MTT: vaddr: 0x77f000, paddr: 0x2df000 mtt_index 72
571315750: svrsys.cpu.workload.drivers: [HanGuDriver]  HGKFD_IOC_ALLOC_MTT: vaddr: 0x781000, paddr: 0x2e1000 mtt_index 73
571315750: svrsys.cpu.workload.drivers: [HanGuDriver]  HGKFD_IOC_ALLOC_MTT: vaddr: 0x783000, paddr: 0x2e3000 mtt_index 74
571315750: svrsys.cpu.workload.drivers: [HanGuDriver]  HGKFD_IOC_ALLOC_MTT: vaddr: 0x785000, paddr: 0x2e5000 mtt_index 75
571315750: svrsys.cpu.workload.drivers: [HanGuDriver]  HGKFD_IOC_ALLOC_MTT: vaddr: 0x787000, paddr: 0x2e7000 mtt_index 76
571315750: svrsys.cpu.workload.drivers: [HanGuDriver]  HGKFD_IOC_ALLOC_MTT: vaddr: 0x789000, paddr: 0x2e9000 mtt_index 77
571315750: svrsys.cpu.workload.drivers: [HanGuDriver]  HGKFD_IOC_ALLOC_MTT: vaddr: 0x78b000, paddr: 0x2eb000 mtt_index 78
571315750: svrsys.cpu.workload.drivers: [HanGuDriver]  HGKFD_IOC_ALLOC_MTT: vaddr: 0x78d000, paddr: 0x2ed000 mtt_index 79
571315750: svrsys.cpu.workload.drivers: [HanGuDriver]  HGKFD_IOC_ALLOC_MTT: vaddr: 0x78f000, paddr: 0x2ef000 mtt_index 80
571315750: svrsys.cpu.workload.drivers: [HanGuDriver]  HGKFD_IOC_ALLOC_MTT: vaddr: 0x791000, paddr: 0x2f1000 mtt_index 81
571315750: svrsys.cpu.workload.drivers: [HanGuDriver]  HGKFD_IOC_ALLOC_MTT: vaddr: 0x793000, paddr: 0x2f3000 mtt_index 82
571315750: svrsys.cpu.workload.drivers: [HanGuDriver]  HGKFD_IOC_ALLOC_MTT: vaddr: 0x795000, paddr: 0x2f5000 mtt_index 83
571315750: svrsys.cpu.workload.drivers: [HanGuDriver]  HGKFD_IOC_ALLOC_MTT: vaddr: 0x797000, paddr: 0x2f7000 mtt_index 84
571315750: svrsys.cpu.workload.drivers: [HanGuDriver]  HGKFD_IOC_ALLOC_MTT: vaddr: 0x799000, paddr: 0x2f9000 mtt_index 85
571315750: svrsys.cpu.workload.drivers: [HanGuDriver]  HGKFD_IOC_ALLOC_MTT: vaddr: 0x79b000, paddr: 0x2fb000 mtt_index 86
571315750: svrsys.cpu.workload.drivers: [HanGuDriver]  HGKFD_IOC_ALLOC_MTT: vaddr: 0x79d000, paddr: 0x2fd000 mtt_index 87
571315750: svrsys.cpu.workload.drivers: [HanGuDriver]  HGKFD_IOC_ALLOC_MTT: vaddr: 0x79f000, paddr: 0x2ff000 mtt_index 88
571315750: svrsys.cpu.workload.drivers: [HanGuDriver]  HGKFD_IOC_ALLOC_MTT: vaddr: 0x7a1000, paddr: 0x301000 mtt_index 89
571315750: svrsys.cpu.workload.drivers: [HanGuDriver]  HGKFD_IOC_ALLOC_MTT: vaddr: 0x7a3000, paddr: 0x303000 mtt_index 90
571315750: svrsys.cpu.workload.drivers: [HanGuDriver]  HGKFD_IOC_ALLOC_MTT: vaddr: 0x7a5000, paddr: 0x305000 mtt_index 91
571315750: svrsys.cpu.workload.drivers: [HanGuDriver]  HGKFD_IOC_ALLOC_MTT: vaddr: 0x7a7000, paddr: 0x307000 mtt_index 92
571315750: svrsys.cpu.workload.drivers: [HanGuDriver]  HGKFD_IOC_ALLOC_MTT: vaddr: 0x7a9000, paddr: 0x309000 mtt_index 93
571315750: svrsys.cpu.workload.drivers: [HanGuDriver]  HGKFD_IOC_ALLOC_MTT: vaddr: 0x7ab000, paddr: 0x30b000 mtt_index 94
571315750: svrsys.cpu.workload.drivers: [HanGuDriver]  HGKFD_IOC_ALLOC_MTT: vaddr: 0x7ad000, paddr: 0x30d000 mtt_index 95
571315750: svrsys.cpu.workload.drivers: [HanGuDriver]  HGKFD_IOC_ALLOC_MTT: vaddr: 0x7af000, paddr: 0x30f000 mtt_index 96
571315750: svrsys.cpu.workload.drivers: [HanGuDriver]  HGKFD_IOC_ALLOC_MTT: vaddr: 0x7b1000, paddr: 0x311000 mtt_index 97
571315750: svrsys.cpu.workload.drivers: [HanGuDriver]  HGKFD_IOC_ALLOC_MTT: vaddr: 0x7b3000, paddr: 0x313000 mtt_index 98
571315750: svrsys.cpu.workload.drivers: [HanGuDriver]  HGKFD_IOC_ALLOC_MTT: vaddr: 0x7b5000, paddr: 0x315000 mtt_index 99
571315750: svrsys.cpu.workload.drivers: [HanGuDriver]  HGKFD_IOC_ALLOC_MTT: vaddr: 0x7b7000, paddr: 0x317000 mtt_index 100
571315750: svrsys.cpu.workload.drivers: [HanGuDriver]  HGKFD_IOC_ALLOC_MTT: vaddr: 0x7b9000, paddr: 0x319000 mtt_index 101
571315750: svrsys.cpu.workload.drivers: [HanGuDriver]  HGKFD_IOC_ALLOC_MTT: vaddr: 0x7bb000, paddr: 0x31b000 mtt_index 102
571315750: svrsys.cpu.workload.drivers: [HanGuDriver]  HGKFD_IOC_ALLOC_MTT: vaddr: 0x7bd000, paddr: 0x31d000 mtt_index 103
571315750: svrsys.cpu.workload.drivers: [HanGuDriver]  HGKFD_IOC_ALLOC_MTT: vaddr: 0x7bf000, paddr: 0x31f000 mtt_index 104
571315750: svrsys.cpu.workload.drivers: [HanGuDriver]  HGKFD_IOC_ALLOC_MTT: vaddr: 0x7c1000, paddr: 0x321000 mtt_index 105
571315750: svrsys.cpu.workload.drivers: [HanGuDriver]  HGKFD_IOC_ALLOC_MTT: vaddr: 0x7c3000, paddr: 0x323000 mtt_index 106
571315750: svrsys.cpu.workload.drivers: [HanGuDriver]  HGKFD_IOC_ALLOC_MTT: vaddr: 0x7c5000, paddr: 0x325000 mtt_index 107
571315750: svrsys.cpu.workload.drivers: [HanGuDriver]  HGKFD_IOC_ALLOC_MTT: vaddr: 0x7c7000, paddr: 0x327000 mtt_index 108
571315750: svrsys.cpu.workload.drivers: [HanGuDriver]  HGKFD_IOC_ALLOC_MTT: vaddr: 0x7c9000, paddr: 0x329000 mtt_index 109
571315750: svrsys.cpu.workload.drivers: [HanGuDriver]  HGKFD_IOC_ALLOC_MTT: vaddr: 0x7cb000, paddr: 0x32b000 mtt_index 110
571315750: svrsys.cpu.workload.drivers: [HanGuDriver]  HGKFD_IOC_ALLOC_MTT: vaddr: 0x7cd000, paddr: 0x32d000 mtt_index 111
571315750: svrsys.cpu.workload.drivers: [HanGuDriver]  HGKFD_IOC_ALLOC_MTT: vaddr: 0x7cf000, paddr: 0x32f000 mtt_index 112
571315750: svrsys.cpu.workload.drivers: [HanGuDriver]  HGKFD_IOC_ALLOC_MTT: vaddr: 0x7d1000, paddr: 0x331000 mtt_index 113
571315750: svrsys.cpu.workload.drivers: [HanGuDriver]  HGKFD_IOC_ALLOC_MTT: vaddr: 0x7d3000, paddr: 0x333000 mtt_index 114
571315750: svrsys.cpu.workload.drivers: [HanGuDriver]  HGKFD_IOC_ALLOC_MTT: vaddr: 0x7d5000, paddr: 0x335000 mtt_index 115
571315750: svrsys.cpu.workload.drivers: [HanGuDriver]  HGKFD_IOC_ALLOC_MTT: vaddr: 0x7d7000, paddr: 0x337000 mtt_index 116
571315750: svrsys.cpu.workload.drivers: [HanGuDriver]  HGKFD_IOC_ALLOC_MTT: vaddr: 0x7d9000, paddr: 0x339000 mtt_index 117
571315750: svrsys.cpu.workload.drivers: [HanGuDriver]  HGKFD_IOC_ALLOC_MTT: vaddr: 0x7db000, paddr: 0x33b000 mtt_index 118
571315750: svrsys.cpu.workload.drivers: [HanGuDriver]  HGKFD_IOC_ALLOC_MTT: vaddr: 0x7dd000, paddr: 0x33d000 mtt_index 119
571315750: svrsys.cpu.workload.drivers: [HanGuDriver]  HGKFD_IOC_ALLOC_MTT: vaddr: 0x7df000, paddr: 0x33f000 mtt_index 120
571315750: svrsys.cpu.workload.drivers: [HanGuDriver]  HGKFD_IOC_ALLOC_MTT: vaddr: 0x7e1000, paddr: 0x341000 mtt_index 121
571315750: svrsys.cpu.workload.drivers: [HanGuDriver]  HGKFD_IOC_ALLOC_MTT: vaddr: 0x7e3000, paddr: 0x343000 mtt_index 122
571315750: svrsys.cpu.workload.drivers: [HanGuDriver]  HGKFD_IOC_ALLOC_MTT: vaddr: 0x7e5000, paddr: 0x345000 mtt_index 123
571315750: svrsys.cpu.workload.drivers: [HanGuDriver]  HGKFD_IOC_ALLOC_MTT: vaddr: 0x7e7000, paddr: 0x347000 mtt_index 124
571315750: svrsys.cpu.workload.drivers: [HanGuDriver]  HGKFD_IOC_ALLOC_MTT: vaddr: 0x7e9000, paddr: 0x349000 mtt_index 125
571315750: svrsys.cpu.workload.drivers: [HanGuDriver]  HGKFD_IOC_ALLOC_MTT: vaddr: 0x7eb000, paddr: 0x34b000 mtt_index 126
571315750: svrsys.cpu.workload.drivers: [HanGuDriver]  HGKFD_IOC_ALLOC_MTT: vaddr: 0x7ed000, paddr: 0x34d000 mtt_index 127
571315750: svrsys.cpu.workload.drivers: [HanGuDriver]  HGKFD_IOC_ALLOC_MTT: vaddr: 0x7ef000, paddr: 0x34f000 mtt_index 128
571315750: svrsys.cpu.workload.drivers: [HanGuDriver]  HGKFD_IOC_ALLOC_MTT: vaddr: 0x7f1000, paddr: 0x351000 mtt_index 129
571315750: svrsys.cpu.workload.drivers: [HanGuDriver]  HGKFD_IOC_ALLOC_MTT: vaddr: 0x7f3000, paddr: 0x353000 mtt_index 130
571315750: svrsys.cpu.workload.drivers: [HanGuDriver]  HGKFD_IOC_ALLOC_MTT: vaddr: 0x7f5000, paddr: 0x355000 mtt_index 131
571315750: svrsys.cpu.workload.drivers: [HanGuDriver]  HGKFD_IOC_ALLOC_MTT: vaddr: 0x7f7000, paddr: 0x357000 mtt_index 132
571315750: svrsys.cpu.workload.drivers: [HanGuDriver]  HGKFD_IOC_ALLOC_MTT: vaddr: 0x7f9000, paddr: 0x359000 mtt_index 133
571315750: svrsys.cpu.workload.drivers: [HanGuDriver]  HGKFD_IOC_ALLOC_MTT: vaddr: 0x7fb000, paddr: 0x35b000 mtt_index 134
571315750: svrsys.cpu.workload.drivers: [HanGuDriver]  HGKFD_IOC_ALLOC_MTT: vaddr: 0x7fd000, paddr: 0x35d000 mtt_index 135
571315750: svrsys.cpu.workload.drivers: [HanGuDriver]  HGKFD_IOC_ALLOC_MTT: vaddr: 0x7ff000, paddr: 0x35f000 mtt_index 136
571315750: svrsys.cpu.workload.drivers: [HanGuDriver]  HGKFD_IOC_ALLOC_MTT: vaddr: 0x801000, paddr: 0x361000 mtt_index 137
571315750: svrsys.cpu.workload.drivers: [HanGuDriver]  HGKFD_IOC_ALLOC_MTT: vaddr: 0x803000, paddr: 0x363000 mtt_index 138
571315750: svrsys.cpu.workload.drivers: [HanGuDriver]  HGKFD_IOC_ALLOC_MTT: vaddr: 0x805000, paddr: 0x366000 mtt_index 139
571315750: svrsys.cpu.workload.drivers: [HanGuDriver]  HGKFD_IOC_ALLOC_MTT: vaddr: 0x807000, paddr: 0x368000 mtt_index 140
571315750: svrsys.cpu.workload.drivers: [HanGuDriver]  HGKFD_IOC_ALLOC_MTT: vaddr: 0x809000, paddr: 0x36a000 mtt_index 141
571315750: svrsys.cpu.workload.drivers: [HanGuDriver]  HGKFD_IOC_ALLOC_MTT: vaddr: 0x80b000, paddr: 0x36c000 mtt_index 142
571315750: svrsys.cpu.workload.drivers: [HanGuDriver]  HGKFD_IOC_ALLOC_MTT: vaddr: 0x80d000, paddr: 0x36e000 mtt_index 143
571315750: svrsys.cpu.workload.drivers: [HanGuDriver]  HGKFD_IOC_ALLOC_MTT: vaddr: 0x80f000, paddr: 0x370000 mtt_index 144
571315750: svrsys.cpu.workload.drivers: [HanGuDriver]  HGKFD_IOC_ALLOC_MTT: vaddr: 0x811000, paddr: 0x372000 mtt_index 145
571315750: svrsys.cpu.workload.drivers: [HanGuDriver]  HGKFD_IOC_ALLOC_MTT: vaddr: 0x813000, paddr: 0x374000 mtt_index 146
571315750: svrsys.cpu.workload.drivers: [HanGuDriver]  HGKFD_IOC_ALLOC_MTT: vaddr: 0x815000, paddr: 0x376000 mtt_index 147
571315750: svrsys.cpu.workload.drivers: [HanGuDriver]  HGKFD_IOC_ALLOC_MTT: vaddr: 0x817000, paddr: 0x378000 mtt_index 148
571315750: svrsys.cpu.workload.drivers: [HanGuDriver]  HGKFD_IOC_ALLOC_MTT: vaddr: 0x819000, paddr: 0x37a000 mtt_index 149
571315750: svrsys.cpu.workload.drivers: [HanGuDriver]  HGKFD_IOC_ALLOC_MTT: vaddr: 0x81b000, paddr: 0x37c000 mtt_index 150
571315750: svrsys.cpu.workload.drivers: [HanGuDriver]  HGKFD_IOC_ALLOC_MTT: vaddr: 0x81d000, paddr: 0x37e000 mtt_index 151
571315750: svrsys.cpu.workload.drivers: [HanGuDriver]  HGKFD_IOC_ALLOC_MTT: vaddr: 0x81f000, paddr: 0x380000 mtt_index 152
571315750: svrsys.cpu.workload.drivers: [HanGuDriver]  HGKFD_IOC_ALLOC_MTT: vaddr: 0x821000, paddr: 0x382000 mtt_index 153
571315750: svrsys.cpu.workload.drivers: [HanGuDriver]  HGKFD_IOC_ALLOC_MTT: vaddr: 0x823000, paddr: 0x384000 mtt_index 154
571315750: svrsys.cpu.workload.drivers: [HanGuDriver]  HGKFD_IOC_ALLOC_MTT: vaddr: 0x825000, paddr: 0x386000 mtt_index 155
571315750: svrsys.cpu.workload.drivers: [HanGuDriver]  HGKFD_IOC_ALLOC_MTT: vaddr: 0x827000, paddr: 0x388000 mtt_index 156
571315750: svrsys.cpu.workload.drivers: [HanGuDriver]  HGKFD_IOC_ALLOC_MTT: vaddr: 0x829000, paddr: 0x38a000 mtt_index 157
571315750: svrsys.cpu.workload.drivers: [HanGuDriver]  HGKFD_IOC_ALLOC_MTT: vaddr: 0x82b000, paddr: 0x38c000 mtt_index 158
571315750: svrsys.cpu.workload.drivers: [HanGuDriver]  HGKFD_IOC_ALLOC_MTT: vaddr: 0x82d000, paddr: 0x38e000 mtt_index 159
571315750: svrsys.cpu.workload.drivers: [HanGuDriver]  HGKFD_IOC_ALLOC_MTT: vaddr: 0x82f000, paddr: 0x390000 mtt_index 160
571315750: svrsys.cpu.workload.drivers: [HanGuDriver]  HGKFD_IOC_ALLOC_MTT: vaddr: 0x831000, paddr: 0x392000 mtt_index 161
571315750: svrsys.cpu.workload.drivers: [HanGuDriver]  HGKFD_IOC_ALLOC_MTT: vaddr: 0x833000, paddr: 0x394000 mtt_index 162
571315750: svrsys.cpu.workload.drivers: [HanGuDriver]  HGKFD_IOC_ALLOC_MTT: vaddr: 0x835000, paddr: 0x396000 mtt_index 163
571315750: svrsys.cpu.workload.drivers: [HanGuDriver]  HGKFD_IOC_ALLOC_MTT: vaddr: 0x837000, paddr: 0x398000 mtt_index 164
571315750: svrsys.cpu.workload.drivers: [HanGuDriver]  HGKFD_IOC_ALLOC_MTT: vaddr: 0x839000, paddr: 0x39a000 mtt_index 165
571315750: svrsys.cpu.workload.drivers: [HanGuDriver]  HGKFD_IOC_ALLOC_MTT: vaddr: 0x83b000, paddr: 0x39c000 mtt_index 166
571315750: svrsys.cpu.workload.drivers: [HanGuDriver]  HGKFD_IOC_ALLOC_MTT: vaddr: 0x83d000, paddr: 0x39e000 mtt_index 167
571315750: svrsys.cpu.workload.drivers: [HanGuDriver]  HGKFD_IOC_ALLOC_MTT: vaddr: 0x83f000, paddr: 0x3a0000 mtt_index 168
571315750: svrsys.cpu.workload.drivers: [HanGuDriver]  HGKFD_IOC_ALLOC_MTT: vaddr: 0x841000, paddr: 0x3a2000 mtt_index 169
571315750: svrsys.cpu.workload.drivers: [HanGuDriver]  HGKFD_IOC_ALLOC_MTT: vaddr: 0x843000, paddr: 0x3a4000 mtt_index 170
571315750: svrsys.cpu.workload.drivers: [HanGuDriver]  HGKFD_IOC_ALLOC_MTT: vaddr: 0x845000, paddr: 0x3a6000 mtt_index 171
571315750: svrsys.cpu.workload.drivers: [HanGuDriver]  HGKFD_IOC_ALLOC_MTT: vaddr: 0x847000, paddr: 0x3a8000 mtt_index 172
571315750: svrsys.cpu.workload.drivers: [HanGuDriver]  HGKFD_IOC_ALLOC_MTT: vaddr: 0x849000, paddr: 0x3aa000 mtt_index 173
571315750: svrsys.cpu.workload.drivers: [HanGuDriver]  HGKFD_IOC_ALLOC_MTT: vaddr: 0x84b000, paddr: 0x3ac000 mtt_index 174
571315750: svrsys.cpu.workload.drivers: [HanGuDriver]  HGKFD_IOC_ALLOC_MTT: vaddr: 0x84d000, paddr: 0x3ae000 mtt_index 175
571315750: svrsys.cpu.workload.drivers: [HanGuDriver]  HGKFD_IOC_ALLOC_MTT: vaddr: 0x84f000, paddr: 0x3b0000 mtt_index 176
571315750: svrsys.cpu.workload.drivers: [HanGuDriver]  HGKFD_IOC_ALLOC_MTT: vaddr: 0x851000, paddr: 0x3b2000 mtt_index 177
571315750: svrsys.cpu.workload.drivers: [HanGuDriver]  HGKFD_IOC_ALLOC_MTT: vaddr: 0x853000, paddr: 0x3b4000 mtt_index 178
571315750: svrsys.cpu.workload.drivers: [HanGuDriver]  HGKFD_IOC_ALLOC_MTT: vaddr: 0x855000, paddr: 0x3b6000 mtt_index 179
571315750: svrsys.cpu.workload.drivers: [HanGuDriver]  HGKFD_IOC_ALLOC_MTT: vaddr: 0x857000, paddr: 0x3b8000 mtt_index 180
571315750: svrsys.cpu.workload.drivers: [HanGuDriver]  HGKFD_IOC_ALLOC_MTT: vaddr: 0x859000, paddr: 0x3ba000 mtt_index 181
571315750: svrsys.cpu.workload.drivers: [HanGuDriver]  HGKFD_IOC_ALLOC_MTT: vaddr: 0x85b000, paddr: 0x3bc000 mtt_index 182
571315750: svrsys.cpu.workload.drivers: [HanGuDriver]  HGKFD_IOC_ALLOC_MTT: vaddr: 0x85d000, paddr: 0x3be000 mtt_index 183
571315750: svrsys.cpu.workload.drivers: [HanGuDriver]  HGKFD_IOC_ALLOC_MTT: vaddr: 0x85f000, paddr: 0x3c0000 mtt_index 184
571315750: svrsys.cpu.workload.drivers: [HanGuDriver]  HGKFD_IOC_ALLOC_MTT: vaddr: 0x861000, paddr: 0x3c2000 mtt_index 185
571315750: svrsys.cpu.workload.drivers: [HanGuDriver]  HGKFD_IOC_ALLOC_MTT: vaddr: 0x863000, paddr: 0x3c4000 mtt_index 186
571315750: svrsys.cpu.workload.drivers: [HanGuDriver]  HGKFD_IOC_ALLOC_MTT: vaddr: 0x865000, paddr: 0x3c6000 mtt_index 187
571315750: svrsys.cpu.workload.drivers: [HanGuDriver]  HGKFD_IOC_ALLOC_MTT: vaddr: 0x867000, paddr: 0x3c8000 mtt_index 188
571315750: svrsys.cpu.workload.drivers: [HanGuDriver]  HGKFD_IOC_ALLOC_MTT: vaddr: 0x869000, paddr: 0x3ca000 mtt_index 189
571315750: svrsys.cpu.workload.drivers: [HanGuDriver]  HGKFD_IOC_ALLOC_MTT: vaddr: 0x86b000, paddr: 0x3cc000 mtt_index 190
571315750: svrsys.cpu.workload.drivers: [HanGuDriver]  HGKFD_IOC_ALLOC_MTT: vaddr: 0x86d000, paddr: 0x3ce000 mtt_index 191
571315750: svrsys.cpu.workload.drivers: [HanGuDriver]  HGKFD_IOC_ALLOC_MTT: vaddr: 0x86f000, paddr: 0x3d0000 mtt_index 192
571315750: svrsys.cpu.workload.drivers: [HanGuDriver]  HGKFD_IOC_ALLOC_MTT: vaddr: 0x871000, paddr: 0x3d2000 mtt_index 193
571315750: svrsys.cpu.workload.drivers: [HanGuDriver]  HGKFD_IOC_ALLOC_MTT: vaddr: 0x873000, paddr: 0x3d4000 mtt_index 194
571315750: svrsys.cpu.workload.drivers: [HanGuDriver]  HGKFD_IOC_ALLOC_MTT: vaddr: 0x875000, paddr: 0x3d6000 mtt_index 195
571315750: svrsys.cpu.workload.drivers: [HanGuDriver]  HGKFD_IOC_ALLOC_MTT: vaddr: 0x877000, paddr: 0x3d8000 mtt_index 196
571315750: svrsys.cpu.workload.drivers: [HanGuDriver]  HGKFD_IOC_ALLOC_MTT: vaddr: 0x879000, paddr: 0x3da000 mtt_index 197
571315750: svrsys.cpu.workload.drivers: [HanGuDriver]  HGKFD_IOC_ALLOC_MTT: vaddr: 0x87b000, paddr: 0x3dc000 mtt_index 198
571315750: svrsys.cpu.workload.drivers: [HanGuDriver]  HGKFD_IOC_ALLOC_MTT: vaddr: 0x87d000, paddr: 0x3de000 mtt_index 199
571315750: svrsys.cpu.workload.drivers: [HanGuDriver]  HGKFD_IOC_ALLOC_MTT: vaddr: 0x87f000, paddr: 0x3e0000 mtt_index 200
571315750: svrsys.cpu.workload.drivers: [HanGuDriver]  HGKFD_IOC_ALLOC_MTT: vaddr: 0x881000, paddr: 0x3e2000 mtt_index 201
571315750: svrsys.cpu.workload.drivers: [HanGuDriver]  HGKFD_IOC_ALLOC_MTT: vaddr: 0x883000, paddr: 0x3e4000 mtt_index 202
571315750: svrsys.cpu.workload.drivers: [HanGuDriver]  HGKFD_IOC_ALLOC_MTT: vaddr: 0x885000, paddr: 0x3e6000 mtt_index 203
571315750: svrsys.cpu.workload.drivers: [HanGuDriver]  HGKFD_IOC_ALLOC_MTT: vaddr: 0x887000, paddr: 0x3e8000 mtt_index 204
571315750: svrsys.cpu.workload.drivers: [HanGuDriver]  HGKFD_IOC_ALLOC_MTT: vaddr: 0x889000, paddr: 0x3ea000 mtt_index 205
571315750: svrsys.cpu.workload.drivers: [HanGuDriver]  HGKFD_IOC_ALLOC_MTT: vaddr: 0x88b000, paddr: 0x3ec000 mtt_index 206
571315750: svrsys.cpu.workload.drivers: [HanGuDriver]  HGKFD_IOC_ALLOC_MTT: vaddr: 0x88d000, paddr: 0x3ee000 mtt_index 207
571315750: svrsys.cpu.workload.drivers: [HanGuDriver]  HGKFD_IOC_ALLOC_MTT: vaddr: 0x88f000, paddr: 0x3f0000 mtt_index 208
571315750: svrsys.cpu.workload.drivers: [HanGuDriver]  HGKFD_IOC_ALLOC_MTT: vaddr: 0x891000, paddr: 0x3f2000 mtt_index 209
571315750: svrsys.cpu.workload.drivers: [HanGuDriver]  HGKFD_IOC_ALLOC_MTT: vaddr: 0x893000, paddr: 0x3f4000 mtt_index 210
571315750: svrsys.cpu.workload.drivers: [HanGuDriver]  HGKFD_IOC_ALLOC_MTT: vaddr: 0x895000, paddr: 0x3f6000 mtt_index 211
571315750: svrsys.cpu.workload.drivers: [HanGuDriver]  HGKFD_IOC_ALLOC_MTT: vaddr: 0x897000, paddr: 0x3f8000 mtt_index 212
571315750: svrsys.cpu.workload.drivers: [HanGuDriver]  HGKFD_IOC_ALLOC_MTT: vaddr: 0x899000, paddr: 0x3fa000 mtt_index 213
571315750: svrsys.cpu.workload.drivers: [HanGuDriver]  HGKFD_IOC_ALLOC_MTT: vaddr: 0x89b000, paddr: 0x3fc000 mtt_index 214
571315750: svrsys.cpu.workload.drivers: [HanGuDriver]  HGKFD_IOC_ALLOC_MTT: vaddr: 0x89d000, paddr: 0x3fe000 mtt_index 215
571315750: svrsys.cpu.workload.drivers: [HanGuDriver]  HGKFD_IOC_ALLOC_MTT: vaddr: 0x89f000, paddr: 0x400000 mtt_index 216
571315750: svrsys.cpu.workload.drivers: [HanGuDriver]  HGKFD_IOC_ALLOC_MTT: vaddr: 0x8a1000, paddr: 0x402000 mtt_index 217
571315750: svrsys.cpu.workload.drivers: [HanGuDriver]  HGKFD_IOC_ALLOC_MTT: vaddr: 0x8a3000, paddr: 0x404000 mtt_index 218
571315750: svrsys.cpu.workload.drivers: [HanGuDriver]  HGKFD_IOC_ALLOC_MTT: vaddr: 0x8a5000, paddr: 0x406000 mtt_index 219
571315750: svrsys.cpu.workload.drivers: [HanGuDriver]  HGKFD_IOC_ALLOC_MTT: vaddr: 0x8a7000, paddr: 0x408000 mtt_index 220
571315750: svrsys.cpu.workload.drivers: [HanGuDriver]  HGKFD_IOC_ALLOC_MTT: vaddr: 0x8a9000, paddr: 0x40a000 mtt_index 221
571315750: svrsys.cpu.workload.drivers: [HanGuDriver]  HGKFD_IOC_ALLOC_MTT: vaddr: 0x8ab000, paddr: 0x40c000 mtt_index 222
571315750: svrsys.cpu.workload.drivers: [HanGuDriver]  HGKFD_IOC_ALLOC_MTT: vaddr: 0x8ad000, paddr: 0x40e000 mtt_index 223
571315750: svrsys.cpu.workload.drivers: [HanGuDriver]  HGKFD_IOC_ALLOC_MTT: vaddr: 0x8af000, paddr: 0x411000 mtt_index 224
571315750: svrsys.cpu.workload.drivers: [HanGuDriver]  HGKFD_IOC_ALLOC_MTT: vaddr: 0x8b1000, paddr: 0x413000 mtt_index 225
571315750: svrsys.cpu.workload.drivers: [HanGuDriver]  HGKFD_IOC_ALLOC_MTT: vaddr: 0x8b3000, paddr: 0x415000 mtt_index 226
571315750: svrsys.cpu.workload.drivers: [HanGuDriver]  HGKFD_IOC_ALLOC_MTT: vaddr: 0x8b5000, paddr: 0x417000 mtt_index 227
571315750: svrsys.cpu.workload.drivers: [HanGuDriver]  HGKFD_IOC_ALLOC_MTT: vaddr: 0x8b7000, paddr: 0x419000 mtt_index 228
571315750: svrsys.cpu.workload.drivers: [HanGuDriver]  HGKFD_IOC_ALLOC_MTT: vaddr: 0x8b9000, paddr: 0x41b000 mtt_index 229
571315750: svrsys.cpu.workload.drivers: [HanGuDriver]  HGKFD_IOC_ALLOC_MTT: vaddr: 0x8bb000, paddr: 0x41d000 mtt_index 230
571315750: svrsys.cpu.workload.drivers: [HanGuDriver]  HGKFD_IOC_ALLOC_MTT: vaddr: 0x8bd000, paddr: 0x41f000 mtt_index 231
571315750: svrsys.cpu.workload.drivers: [HanGuDriver]  HGKFD_IOC_ALLOC_MTT: vaddr: 0x8bf000, paddr: 0x421000 mtt_index 232
571315750: svrsys.cpu.workload.drivers: [HanGuDriver]  HGKFD_IOC_ALLOC_MTT: vaddr: 0x8c1000, paddr: 0x423000 mtt_index 233
571315750: svrsys.cpu.workload.drivers: [HanGuDriver]  HGKFD_IOC_ALLOC_MTT: vaddr: 0x8c3000, paddr: 0x425000 mtt_index 234
571315750: svrsys.cpu.workload.drivers: [HanGuDriver]  HGKFD_IOC_ALLOC_MTT: vaddr: 0x8c5000, paddr: 0x427000 mtt_index 235
571315750: svrsys.cpu.workload.drivers: [HanGuDriver]  HGKFD_IOC_ALLOC_MTT: vaddr: 0x8c7000, paddr: 0x429000 mtt_index 236
571315750: svrsys.cpu.workload.drivers: [HanGuDriver]  HGKFD_IOC_ALLOC_MTT: vaddr: 0x8c9000, paddr: 0x42b000 mtt_index 237
571315750: svrsys.cpu.workload.drivers: [HanGuDriver]  HGKFD_IOC_ALLOC_MTT: vaddr: 0x8cb000, paddr: 0x42d000 mtt_index 238
571315750: svrsys.cpu.workload.drivers: [HanGuDriver]  HGKFD_IOC_ALLOC_MTT: vaddr: 0x8cd000, paddr: 0x42f000 mtt_index 239
571315750: svrsys.cpu.workload.drivers: [HanGuDriver]  HGKFD_IOC_ALLOC_MTT: vaddr: 0x8cf000, paddr: 0x431000 mtt_index 240
571315750: svrsys.cpu.workload.drivers: [HanGuDriver]  HGKFD_IOC_ALLOC_MTT: vaddr: 0x8d1000, paddr: 0x433000 mtt_index 241
571315750: svrsys.cpu.workload.drivers: [HanGuDriver]  HGKFD_IOC_ALLOC_MTT: vaddr: 0x8d3000, paddr: 0x435000 mtt_index 242
571315750: svrsys.cpu.workload.drivers: [HanGuDriver]  HGKFD_IOC_ALLOC_MTT: vaddr: 0x8d5000, paddr: 0x437000 mtt_index 243
571315750: svrsys.cpu.workload.drivers: [HanGuDriver]  HGKFD_IOC_ALLOC_MTT: vaddr: 0x8d7000, paddr: 0x439000 mtt_index 244
571315750: svrsys.cpu.workload.drivers: [HanGuDriver]  HGKFD_IOC_ALLOC_MTT: vaddr: 0x8d9000, paddr: 0x43b000 mtt_index 245
571315750: svrsys.cpu.workload.drivers: [HanGuDriver]  HGKFD_IOC_ALLOC_MTT: vaddr: 0x8db000, paddr: 0x43d000 mtt_index 246
571315750: svrsys.cpu.workload.drivers: [HanGuDriver]  HGKFD_IOC_ALLOC_MTT: vaddr: 0x8dd000, paddr: 0x43f000 mtt_index 247
571315750: svrsys.cpu.workload.drivers: [HanGuDriver]  HGKFD_IOC_ALLOC_MTT: vaddr: 0x8df000, paddr: 0x441000 mtt_index 248
571315750: svrsys.cpu.workload.drivers: [HanGuDriver]  HGKFD_IOC_ALLOC_MTT: vaddr: 0x8e1000, paddr: 0x443000 mtt_index 249
571315750: svrsys.cpu.workload.drivers: [HanGuDriver]  HGKFD_IOC_ALLOC_MTT: vaddr: 0x8e3000, paddr: 0x445000 mtt_index 250
571315750: svrsys.cpu.workload.drivers: [HanGuDriver]  HGKFD_IOC_ALLOC_MTT: vaddr: 0x8e5000, paddr: 0x447000 mtt_index 251
571315750: svrsys.cpu.workload.drivers: [HanGuDriver]  HGKFD_IOC_ALLOC_MTT: vaddr: 0x8e7000, paddr: 0x449000 mtt_index 252
571315750: svrsys.cpu.workload.drivers: [HanGuDriver]  HGKFD_IOC_ALLOC_MTT: vaddr: 0x8e9000, paddr: 0x44b000 mtt_index 253
571315750: svrsys.cpu.workload.drivers: [HanGuDriver]  HGKFD_IOC_ALLOC_MTT: vaddr: 0x8eb000, paddr: 0x44d000 mtt_index 254
571315750: svrsys.cpu.workload.drivers: [HanGuDriver]  HGKFD_IOC_ALLOC_MTT: vaddr: 0x8ed000, paddr: 0x44f000 mtt_index 255
571315750: svrsys.cpu.workload.drivers: [HanGuDriver]  HGKFD_IOC_ALLOC_MTT: vaddr: 0x8ef000, paddr: 0x451000 mtt_index 256
571315750: svrsys.cpu.workload.drivers: [HanGuDriver]  HGKFD_IOC_ALLOC_MTT: vaddr: 0x8f1000, paddr: 0x453000 mtt_index 257
571315750: svrsys.cpu.workload.drivers: [HanGuDriver]  HGKFD_IOC_ALLOC_MTT: vaddr: 0x8f3000, paddr: 0x455000 mtt_index 258
571315750: svrsys.cpu.workload.drivers: [HanGuDriver]  HGKFD_IOC_ALLOC_MTT: vaddr: 0x8f5000, paddr: 0x457000 mtt_index 259
571315750: svrsys.cpu.workload.drivers: [HanGuDriver]  HGKFD_IOC_ALLOC_MTT: vaddr: 0x8f7000, paddr: 0x459000 mtt_index 260
571315750: svrsys.cpu.workload.drivers: [HanGuDriver]  HGKFD_IOC_ALLOC_MTT: vaddr: 0x8f9000, paddr: 0x45b000 mtt_index 261
571315750: svrsys.cpu.workload.drivers: [HanGuDriver]  HGKFD_IOC_ALLOC_MTT: vaddr: 0x8fb000, paddr: 0x45d000 mtt_index 262
571315750: svrsys.cpu.workload.drivers: [HanGuDriver]  HGKFD_IOC_ALLOC_MTT: vaddr: 0x8fd000, paddr: 0x45f000 mtt_index 263
571315750: svrsys.cpu.workload.drivers: [HanGuDriver]  HGKFD_IOC_ALLOC_MTT: vaddr: 0x8ff000, paddr: 0x461000 mtt_index 264
571315750: svrsys.cpu.workload.drivers: [HanGuDriver]  HGKFD_IOC_ALLOC_MTT: vaddr: 0x901000, paddr: 0x463000 mtt_index 265
571315750: svrsys.cpu.workload.drivers: [HanGuDriver]  HGKFD_IOC_ALLOC_MTT: vaddr: 0x903000, paddr: 0x465000 mtt_index 266
571315750: svrsys.cpu.workload.drivers: [HanGuDriver]  HGKFD_IOC_ALLOC_MTT: vaddr: 0x905000, paddr: 0x467000 mtt_index 267
571315750: svrsys.cpu.workload.drivers: [HanGuDriver]  HGKFD_IOC_ALLOC_MTT: vaddr: 0x907000, paddr: 0x469000 mtt_index 268
571315750: svrsys.cpu.workload.drivers: [HanGuDriver]  HGKFD_IOC_ALLOC_MTT: vaddr: 0x909000, paddr: 0x46b000 mtt_index 269
571315750: svrsys.cpu.workload.drivers: [HanGuDriver]  HGKFD_IOC_ALLOC_MTT: vaddr: 0x90b000, paddr: 0x46d000 mtt_index 270
571315750: svrsys.cpu.workload.drivers: [HanGuDriver]  HGKFD_IOC_ALLOC_MTT: vaddr: 0x90d000, paddr: 0x46f000 mtt_index 271
571315750: svrsys.cpu.workload.drivers: [HanGuDriver]  HGKFD_IOC_ALLOC_MTT: vaddr: 0x90f000, paddr: 0x471000 mtt_index 272
571315750: svrsys.cpu.workload.drivers: [HanGuDriver]  HGKFD_IOC_ALLOC_MTT: vaddr: 0x911000, paddr: 0x473000 mtt_index 273
571315750: svrsys.cpu.workload.drivers: [HanGuDriver]  HGKFD_IOC_ALLOC_MTT: vaddr: 0x913000, paddr: 0x475000 mtt_index 274
571315750: svrsys.cpu.workload.drivers: [HanGuDriver]  HGKFD_IOC_ALLOC_MTT: vaddr: 0x915000, paddr: 0x477000 mtt_index 275
571315750: svrsys.cpu.workload.drivers: [HanGuDriver]  HGKFD_IOC_ALLOC_MTT: vaddr: 0x917000, paddr: 0x479000 mtt_index 276
571315750: svrsys.cpu.workload.drivers: [HanGuDriver]  HGKFD_IOC_ALLOC_MTT: vaddr: 0x919000, paddr: 0x47b000 mtt_index 277
571315750: svrsys.cpu.workload.drivers: [HanGuDriver]  HGKFD_IOC_ALLOC_MTT: vaddr: 0x91b000, paddr: 0x47d000 mtt_index 278
571315750: svrsys.cpu.workload.drivers: [HanGuDriver]  HGKFD_IOC_ALLOC_MTT: vaddr: 0x91d000, paddr: 0x47f000 mtt_index 279
571315750: svrsys.cpu.workload.drivers: [HanGuDriver]  HGKFD_IOC_ALLOC_MTT: vaddr: 0x91f000, paddr: 0x481000 mtt_index 280
571315750: svrsys.cpu.workload.drivers: [HanGuDriver]  HGKFD_IOC_ALLOC_MTT: vaddr: 0x921000, paddr: 0x483000 mtt_index 281
571315750: svrsys.cpu.workload.drivers: [HanGuDriver]  HGKFD_IOC_ALLOC_MTT: vaddr: 0x923000, paddr: 0x485000 mtt_index 282
571315750: svrsys.cpu.workload.drivers: [HanGuDriver]  HGKFD_IOC_ALLOC_MTT: vaddr: 0x925000, paddr: 0x487000 mtt_index 283
571315750: svrsys.cpu.workload.drivers: [HanGuDriver]  HGKFD_IOC_ALLOC_MTT: vaddr: 0x927000, paddr: 0x489000 mtt_index 284
571315750: svrsys.cpu.workload.drivers: [HanGuDriver]  HGKFD_IOC_ALLOC_MTT: vaddr: 0x929000, paddr: 0x48b000 mtt_index 285
571315750: svrsys.cpu.workload.drivers: [HanGuDriver]  HGKFD_IOC_ALLOC_MTT: vaddr: 0x92b000, paddr: 0x48d000 mtt_index 286
571315750: svrsys.cpu.workload.drivers: [HanGuDriver]  HGKFD_IOC_ALLOC_MTT: vaddr: 0x92d000, paddr: 0x48f000 mtt_index 287
571315750: svrsys.cpu.workload.drivers: [HanGuDriver]  HGKFD_IOC_ALLOC_MTT: vaddr: 0x92f000, paddr: 0x491000 mtt_index 288
571315750: svrsys.cpu.workload.drivers: [HanGuDriver]  HGKFD_IOC_ALLOC_MTT: vaddr: 0x931000, paddr: 0x493000 mtt_index 289
571315750: svrsys.cpu.workload.drivers: [HanGuDriver]  HGKFD_IOC_ALLOC_MTT: vaddr: 0x933000, paddr: 0x495000 mtt_index 290
571315750: svrsys.cpu.workload.drivers: [HanGuDriver]  HGKFD_IOC_ALLOC_MTT: vaddr: 0x935000, paddr: 0x497000 mtt_index 291
571315750: svrsys.cpu.workload.drivers: [HanGuDriver]  HGKFD_IOC_ALLOC_MTT: vaddr: 0x937000, paddr: 0x499000 mtt_index 292
571315750: svrsys.cpu.workload.drivers: [HanGuDriver]  HGKFD_IOC_ALLOC_MTT: vaddr: 0x939000, paddr: 0x49b000 mtt_index 293
571315750: svrsys.cpu.workload.drivers: [HanGuDriver]  HGKFD_IOC_ALLOC_MTT: vaddr: 0x93b000, paddr: 0x49d000 mtt_index 294
571315750: svrsys.cpu.workload.drivers: [HanGuDriver]  HGKFD_IOC_ALLOC_MTT: vaddr: 0x93d000, paddr: 0x49f000 mtt_index 295
571315750: svrsys.cpu.workload.drivers: [HanGuDriver]  HGKFD_IOC_ALLOC_MTT: vaddr: 0x93f000, paddr: 0x4a1000 mtt_index 296
571315750: svrsys.cpu.workload.drivers: [HanGuDriver]  HGKFD_IOC_ALLOC_MTT: vaddr: 0x941000, paddr: 0x4a3000 mtt_index 297
571315750: svrsys.cpu.workload.drivers: [HanGuDriver]  HGKFD_IOC_ALLOC_MTT: vaddr: 0x943000, paddr: 0x4a5000 mtt_index 298
571315750: svrsys.cpu.workload.drivers: [HanGuDriver]  HGKFD_IOC_ALLOC_MTT: vaddr: 0x945000, paddr: 0x4a7000 mtt_index 299
571315750: svrsys.cpu.workload.drivers: [HanGuDriver]  HGKFD_IOC_ALLOC_MTT: vaddr: 0x947000, paddr: 0x4a9000 mtt_index 300
571315750: svrsys.cpu.workload.drivers: [HanGuDriver]  HGKFD_IOC_ALLOC_MTT: vaddr: 0x949000, paddr: 0x4ab000 mtt_index 301
571315750: svrsys.cpu.workload.drivers: [HanGuDriver]  HGKFD_IOC_ALLOC_MTT: vaddr: 0x94b000, paddr: 0x4ad000 mtt_index 302
571315750: svrsys.cpu.workload.drivers: [HanGuDriver]  HGKFD_IOC_ALLOC_MTT: vaddr: 0x94d000, paddr: 0x4af000 mtt_index 303
571315750: svrsys.cpu.workload.drivers: [HanGuDriver]  HGKFD_IOC_ALLOC_MTT: vaddr: 0x94f000, paddr: 0x4b1000 mtt_index 304
571315750: svrsys.cpu.workload.drivers: [HanGuDriver]  HGKFD_IOC_ALLOC_MTT: vaddr: 0x951000, paddr: 0x4b3000 mtt_index 305
571315750: svrsys.cpu.workload.drivers: [HanGuDriver]  HGKFD_IOC_ALLOC_MTT: vaddr: 0x953000, paddr: 0x4b5000 mtt_index 306
571315750: svrsys.cpu.workload.drivers: [HanGuDriver]  HGKFD_IOC_ALLOC_MTT: vaddr: 0x955000, paddr: 0x4b7000 mtt_index 307
571315750: svrsys.cpu.workload.drivers: [HanGuDriver]  HGKFD_IOC_ALLOC_MTT: vaddr: 0x957000, paddr: 0x4b9000 mtt_index 308
571315750: svrsys.cpu.workload.drivers: [HanGuDriver]  HGKFD_IOC_ALLOC_MTT: vaddr: 0x959000, paddr: 0x4bb000 mtt_index 309
571315750: svrsys.cpu.workload.drivers: [HanGuDriver]  HGKFD_IOC_ALLOC_MTT: vaddr: 0x95b000, paddr: 0x4be000 mtt_index 310
571315750: svrsys.cpu.workload.drivers: [HanGuDriver]  HGKFD_IOC_ALLOC_MTT: vaddr: 0x95d000, paddr: 0x4c0000 mtt_index 311
571315750: svrsys.cpu.workload.drivers: [HanGuDriver]  HGKFD_IOC_ALLOC_MTT: vaddr: 0x95f000, paddr: 0x4c2000 mtt_index 312
571315750: svrsys.cpu.workload.drivers: [HanGuDriver]  HGKFD_IOC_ALLOC_MTT: vaddr: 0x961000, paddr: 0x4c4000 mtt_index 313
571315750: svrsys.cpu.workload.drivers: [HanGuDriver]  HGKFD_IOC_ALLOC_MTT: vaddr: 0x963000, paddr: 0x4c6000 mtt_index 314
571315750: svrsys.cpu.workload.drivers: [HanGuDriver]  HGKFD_IOC_ALLOC_MTT: vaddr: 0x965000, paddr: 0x4c8000 mtt_index 315
571315750: svrsys.cpu.workload.drivers: [HanGuDriver]  HGKFD_IOC_ALLOC_MTT: vaddr: 0x967000, paddr: 0x4ca000 mtt_index 316
571315750: svrsys.cpu.workload.drivers: [HanGuDriver]  HGKFD_IOC_ALLOC_MTT: vaddr: 0x969000, paddr: 0x4cc000 mtt_index 317
571315750: svrsys.cpu.workload.drivers: [HanGuDriver]  HGKFD_IOC_ALLOC_MTT: vaddr: 0x96b000, paddr: 0x4ce000 mtt_index 318
571315750: svrsys.cpu.workload.drivers: [HanGuDriver]  HGKFD_IOC_ALLOC_MTT: vaddr: 0x96d000, paddr: 0x4d0000 mtt_index 319
571315750: svrsys.cpu.workload.drivers: [HanGuDriver]  HGKFD_IOC_ALLOC_MTT: vaddr: 0x96f000, paddr: 0x4d2000 mtt_index 320
571315750: svrsys.cpu.workload.drivers: [HanGuDriver]  HGKFD_IOC_ALLOC_MTT: vaddr: 0x971000, paddr: 0x4d4000 mtt_index 321
571315750: svrsys.cpu.workload.drivers: [HanGuDriver]  HGKFD_IOC_ALLOC_MTT: vaddr: 0x973000, paddr: 0x4d6000 mtt_index 322
571315750: svrsys.cpu.workload.drivers: [HanGuDriver]  HGKFD_IOC_ALLOC_MTT: vaddr: 0x975000, paddr: 0x4d8000 mtt_index 323
571315750: svrsys.cpu.workload.drivers: [HanGuDriver]  HGKFD_IOC_ALLOC_MTT: vaddr: 0x977000, paddr: 0x4da000 mtt_index 324
571315750: svrsys.cpu.workload.drivers: [HanGuDriver]  HGKFD_IOC_ALLOC_MTT: vaddr: 0x979000, paddr: 0x4dc000 mtt_index 325
571315750: svrsys.cpu.workload.drivers: [HanGuDriver]  HGKFD_IOC_ALLOC_MTT: vaddr: 0x97b000, paddr: 0x4de000 mtt_index 326
571315750: svrsys.cpu.workload.drivers: [HanGuDriver]  HGKFD_IOC_ALLOC_MTT: vaddr: 0x97d000, paddr: 0x4e0000 mtt_index 327
571315750: svrsys.cpu.workload.drivers: [HanGuDriver]  HGKFD_IOC_ALLOC_MTT: vaddr: 0x97f000, paddr: 0x4e2000 mtt_index 328
571315750: svrsys.cpu.workload.drivers: [HanGuDriver]  HGKFD_IOC_ALLOC_MTT: vaddr: 0x981000, paddr: 0x4e4000 mtt_index 329
571315750: svrsys.cpu.workload.drivers: [HanGuDriver]  HGKFD_IOC_ALLOC_MTT: vaddr: 0x983000, paddr: 0x4e6000 mtt_index 330
571315750: svrsys.cpu.workload.drivers: [HanGuDriver]  HGKFD_IOC_ALLOC_MTT: vaddr: 0x985000, paddr: 0x4e8000 mtt_index 331
571315750: svrsys.cpu.workload.drivers: [HanGuDriver]  HGKFD_IOC_ALLOC_MTT: vaddr: 0x987000, paddr: 0x4eb000 mtt_index 332
571315750: svrsys.cpu.workload.drivers: [HanGuDriver]  HGKFD_IOC_ALLOC_MTT: vaddr: 0x989000, paddr: 0x4ed000 mtt_index 333
571315750: svrsys.cpu.workload.drivers: [HanGuDriver]  HGKFD_IOC_ALLOC_MTT: vaddr: 0x98b000, paddr: 0x4ef000 mtt_index 334
571315750: svrsys.cpu.workload.drivers: [HanGuDriver]  HGKFD_IOC_ALLOC_MTT: vaddr: 0x98d000, paddr: 0x4f1000 mtt_index 335
571315750: svrsys.cpu.workload.drivers: [HanGuDriver]  HGKFD_IOC_ALLOC_MTT: vaddr: 0x98f000, paddr: 0x4f3000 mtt_index 336
571315750: svrsys.cpu.workload.drivers: [HanGuDriver]  HGKFD_IOC_ALLOC_MTT: vaddr: 0x991000, paddr: 0x4f5000 mtt_index 337
571315750: svrsys.cpu.workload.drivers: [HanGuDriver]  HGKFD_IOC_ALLOC_MTT: vaddr: 0x993000, paddr: 0x4f7000 mtt_index 338
571315750: svrsys.cpu.workload.drivers: [HanGuDriver]  HGKFD_IOC_ALLOC_MTT: vaddr: 0x995000, paddr: 0x4f9000 mtt_index 339
571315750: svrsys.cpu.workload.drivers: [HanGuDriver]  HGKFD_IOC_ALLOC_MTT: vaddr: 0x997000, paddr: 0x4fb000 mtt_index 340
571315750: svrsys.cpu.workload.drivers: [HanGuDriver]  HGKFD_IOC_ALLOC_MTT: vaddr: 0x999000, paddr: 0x4fd000 mtt_index 341
571315750: svrsys.cpu.workload.drivers: [HanGuDriver]  HGKFD_IOC_ALLOC_MTT: vaddr: 0x99b000, paddr: 0x4ff000 mtt_index 342
571315750: svrsys.cpu.workload.drivers: [HanGuDriver]  HGKFD_IOC_ALLOC_MTT: vaddr: 0x99d000, paddr: 0x501000 mtt_index 343
571315750: svrsys.cpu.workload.drivers: [HanGuDriver]  HGKFD_IOC_ALLOC_MTT: vaddr: 0x99f000, paddr: 0x503000 mtt_index 344
[...]
9210615782: svrsys.platform.rdma_nic.QpcModule: [CxtResc]  QpcModule.qpcReqProc.readProc: cache hit, chnlNum 1, qpn 11
9211238951: cltsys.platform.rdma_nic.QpcModule: [CxtResc]  QpcModule.qpcReqProc.readProc: cache hit, chnlNum 2, qpn 11
9211343952: svrsys.platform.rdma_nic.CqcModule: [CxtResc]  CqcModule.cqcReqProc!
9211343952: svrsys.platform.rdma_nic.CqcModule: [CxtResc]  CqcModule.cqcReqProc: tx CQC read req posted!
9211343952: svrsys.platform.rdma_nic.CqcModule: [CxtResc]  CqcModule.cqcReqProc: out!
9211345952: svrsys.platform.rdma_nic.CqcModule: [CxtResc]  CqcModule.cqcRspProc!
9211345952: svrsys.platform.rdma_nic.CqcModule: [CxtResc]  CqcModule.cqcRspProc: out!
[SERVER: Server10-0] qpn_num: 11, latency_test consume_time 1420.50 ns
9213937250: svrsys.platform.rdma_nic.QpcModule: [CxtResc]  QpcModule.qpcReqProc.readProc: cache hit, chnlNum 3, qpn 12
9214452282: svrsys.platform.rdma_nic.QpcModule: [CxtResc]  QpcModule.qpcReqProc.readProc: cache hit, chnlNum 1, qpn 12
9215075451: cltsys.platform.rdma_nic.QpcModule: [CxtResc]  QpcModule.qpcReqProc.readProc: cache hit, chnlNum 2, qpn 12
9215180452: svrsys.platform.rdma_nic.CqcModule: [CxtResc]  CqcModule.cqcReqProc!
9215180452: svrsys.platform.rdma_nic.CqcModule: [CxtResc]  CqcModule.cqcReqProc: tx CQC read req posted!
9215180452: svrsys.platform.rdma_nic.CqcModule: [CxtResc]  CqcModule.cqcReqProc: out!
9215182452: svrsys.platform.rdma_nic.CqcModule: [CxtResc]  CqcModule.cqcRspProc!
9215182452: svrsys.platform.rdma_nic.CqcModule: [CxtResc]  CqcModule.cqcRspProc: out!
[SERVER: Server10-0] qpn_num: 12, latency_test consume_time 1420.50 ns
9217773750: svrsys.platform.rdma_nic.QpcModule: [CxtResc]  QpcModule.qpcReqProc.readProc: cache hit, chnlNum 3, qpn 13
9218288782: svrsys.platform.rdma_nic.QpcModule: [CxtResc]  QpcModule.qpcReqProc.readProc: cache hit, chnlNum 1, qpn 13
9218911951: cltsys.platform.rdma_nic.QpcModule: [CxtResc]  QpcModule.qpcReqProc.readProc: cache hit, chnlNum 2, qpn 13
9219016952: svrsys.platform.rdma_nic.CqcModule: [CxtResc]  CqcModule.cqcReqProc!
9219016952: svrsys.platform.rdma_nic.CqcModule: [CxtResc]  CqcModule.cqcReqProc: tx CQC read req posted!
9219016952: svrsys.platform.rdma_nic.CqcModule: [CxtResc]  CqcModule.cqcReqProc: out!
9219018952: svrsys.platform.rdma_nic.CqcModule: [CxtResc]  CqcModule.cqcRspProc!
9219018952: svrsys.platform.rdma_nic.CqcModule: [CxtResc]  CqcModule.cqcRspProc: out!
[SERVER: Server10-0] qpn_num: 13, latency_test consume_time 1420.50 ns
9221610250: svrsys.platform.rdma_nic.QpcModule: [CxtResc]  QpcModule.qpcReqProc.readProc: cache hit, chnlNum 3, qpn 14
9222125282: svrsys.platform.rdma_nic.QpcModule: [CxtResc]  QpcModule.qpcReqProc.readProc: cache hit, chnlNum 1, qpn 14
9222748451: cltsys.platform.rdma_nic.QpcModule: [CxtResc]  QpcModule.qpcReqProc.readProc: cache hit, chnlNum 2, qpn 14
9222853452: svrsys.platform.rdma_nic.CqcModule: [CxtResc]  CqcModule.cqcReqProc!
9222853452: svrsys.platform.rdma_nic.CqcModule: [CxtResc]  CqcModule.cqcReqProc: tx CQC read req posted!
9222853452: svrsys.platform.rdma_nic.CqcModule: [CxtResc]  CqcModule.cqcReqProc: out!
9222855452: svrsys.platform.rdma_nic.CqcModule: [CxtResc]  CqcModule.cqcRspProc!
9222855452: svrsys.platform.rdma_nic.CqcModule: [CxtResc]  CqcModule.cqcRspProc: out!
[SERVER: Server10-0] qpn_num: 14, latency_test consume_time 1420.50 ns
9225446750: svrsys.platform.rdma_nic.QpcModule: [CxtResc]  QpcModule.qpcReqProc.readProc: cache hit, chnlNum 3, qpn 15
9225961782: svrsys.platform.rdma_nic.QpcModule: [CxtResc]  QpcModule.qpcReqProc.readProc: cache hit, chnlNum 1, qpn 15
9226584951: cltsys.platform.rdma_nic.QpcModule: [CxtResc]  QpcModule.qpcReqProc.readProc: cache hit, chnlNum 2, qpn 15
9226689952: svrsys.platform.rdma_nic.CqcModule: [CxtResc]  CqcModule.cqcReqProc!
9226689952: svrsys.platform.rdma_nic.CqcModule: [CxtResc]  CqcModule.cqcReqProc: tx CQC read req posted!
9226689952: svrsys.platform.rdma_nic.CqcModule: [CxtResc]  CqcModule.cqcReqProc: out!
9226691952: svrsys.platform.rdma_nic.CqcModule: [CxtResc]  CqcModule.cqcRspProc!
9226691952: svrsys.platform.rdma_nic.CqcModule: [CxtResc]  CqcModule.cqcRspProc: out!
[SERVER: Server10-0] qpn_num: 15, latency_test consume_time 1420.50 ns
9229283250: svrsys.platform.rdma_nic.QpcModule: [CxtResc]  QpcModule.qpcReqProc.readProc: cache hit, chnlNum 3, qpn 16
9229798282: svrsys.platform.rdma_nic.QpcModule: [CxtResc]  QpcModule.qpcReqProc.readProc: cache hit, chnlNum 1, qpn 16
9230421451: cltsys.platform.rdma_nic.QpcModule: [CxtResc]  QpcModule.qpcReqProc.readProc: cache hit, chnlNum 2, qpn 16
9230526452: svrsys.platform.rdma_nic.CqcModule: [CxtResc]  CqcModule.cqcReqProc!
9230526452: svrsys.platform.rdma_nic.CqcModule: [CxtResc]  CqcModule.cqcReqProc: tx CQC read req posted!
9230526452: svrsys.platform.rdma_nic.CqcModule: [CxtResc]  CqcModule.cqcReqProc: out!
9230528452: svrsys.platform.rdma_nic.CqcModule: [CxtResc]  CqcModule.cqcRspProc!
9230528452: svrsys.platform.rdma_nic.CqcModule: [CxtResc]  CqcModule.cqcRspProc: out!
[SERVER: Server10-0] qpn_num: 16, latency_test consume_time 1420.50 ns
9233119750: svrsys.platform.rdma_nic.QpcModule: [CxtResc]  QpcModule.qpcReqProc.readProc: cache hit, chnlNum 3, qpn 17
9233634782: svrsys.platform.rdma_nic.QpcModule: [CxtResc]  QpcModule.qpcReqProc.readProc: cache hit, chnlNum 1, qpn 17
9234257951: cltsys.platform.rdma_nic.QpcModule: [CxtResc]  QpcModule.qpcReqProc.readProc: cache hit, chnlNum 2, qpn 17
9234362952: svrsys.platform.rdma_nic.CqcModule: [CxtResc]  CqcModule.cqcReqProc!
9234362952: svrsys.platform.rdma_nic.CqcModule: [CxtResc]  CqcModule.cqcReqProc: tx CQC read req posted!
9234362952: svrsys.platform.rdma_nic.CqcModule: [CxtResc]  CqcModule.cqcReqProc: out!
9234364952: svrsys.platform.rdma_nic.CqcModule: [CxtResc]  CqcModule.cqcRspProc!
9234364952: svrsys.platform.rdma_nic.CqcModule: [CxtResc]  CqcModule.cqcRspProc: out!
[SERVER: Server10-0] qpn_num: 17, latency_test consume_time 1420.50 ns
9236956250: svrsys.platform.rdma_nic.QpcModule: [CxtResc]  QpcModule.qpcReqProc.readProc: cache hit, chnlNum 3, qpn 18
9237471282: svrsys.platform.rdma_nic.QpcModule: [CxtResc]  QpcModule.qpcReqProc.readProc: cache hit, chnlNum 1, qpn 18
9238094451: cltsys.platform.rdma_nic.QpcModule: [CxtResc]  QpcModule.qpcReqProc.readProc: cache hit, chnlNum 2, qpn 18
9238199452: svrsys.platform.rdma_nic.CqcModule: [CxtResc]  CqcModule.cqcReqProc!
9238199452: svrsys.platform.rdma_nic.CqcModule: [CxtResc]  CqcModule.cqcReqProc: tx CQC read req posted!
9238199452: svrsys.platform.rdma_nic.CqcModule: [CxtResc]  CqcModule.cqcReqProc: out!
9238201452: svrsys.platform.rdma_nic.CqcModule: [CxtResc]  CqcModule.cqcRspProc!
9238201452: svrsys.platform.rdma_nic.CqcModule: [CxtResc]  CqcModule.cqcRspProc: out!
[SERVER: Server10-0] qpn_num: 18, latency_test consume_time 1420.50 ns
9240792750: svrsys.platform.rdma_nic.QpcModule: [CxtResc]  QpcModule.qpcReqProc.readProc: cache hit, chnlNum 3, qpn 19
9241307782: svrsys.platform.rdma_nic.QpcModule: [CxtResc]  QpcModule.qpcReqProc.readProc: cache hit, chnlNum 1, qpn 19
9241930951: cltsys.platform.rdma_nic.QpcModule: [CxtResc]  QpcModule.qpcReqProc.readProc: cache hit, chnlNum 2, qpn 19
9242035952: svrsys.platform.rdma_nic.CqcModule: [CxtResc]  CqcModule.cqcReqProc!
9242035952: svrsys.platform.rdma_nic.CqcModule: [CxtResc]  CqcModule.cqcReqProc: tx CQC read req posted!
9242035952: svrsys.platform.rdma_nic.CqcModule: [CxtResc]  CqcModule.cqcReqProc: out!
9242037952: svrsys.platform.rdma_nic.CqcModule: [CxtResc]  CqcModule.cqcRspProc!
9242037952: svrsys.platform.rdma_nic.CqcModule: [CxtResc]  CqcModule.cqcRspProc: out!
[SERVER: Server10-0] qpn_num: 19, latency_test consume_time 1420.50 ns
9244629250: svrsys.platform.rdma_nic.QpcModule: [CxtResc]  QpcModule.qpcReqProc.readProc: cache hit, chnlNum 3, qpn 20
9245144282: svrsys.platform.rdma_nic.QpcModule: [CxtResc]  QpcModule.qpcReqProc.readProc: cache hit, chnlNum 1, qpn 20
9245767451: cltsys.platform.rdma_nic.QpcModule: [CxtResc]  QpcModule.qpcReqProc.readProc: cache hit, chnlNum 2, qpn 20
9245872452: svrsys.platform.rdma_nic.CqcModule: [CxtResc]  CqcModule.cqcReqProc!
9245872452: svrsys.platform.rdma_nic.CqcModule: [CxtResc]  CqcModule.cqcReqProc: tx CQC read req posted!
9245872452: svrsys.platform.rdma_nic.CqcModule: [CxtResc]  CqcModule.cqcReqProc: out!
9245874452: svrsys.platform.rdma_nic.CqcModule: [CxtResc]  CqcModule.cqcRspProc!
9245874452: svrsys.platform.rdma_nic.CqcModule: [CxtResc]  CqcModule.cqcRspProc: out!
[SERVER: Server10-0] qpn_num: 20, latency_test consume_time 1420.50 ns
9248465750: svrsys.platform.rdma_nic.QpcModule: [CxtResc]  QpcModule.qpcReqProc.readProc: cache hit, chnlNum 3, qpn 21
9248980782: svrsys.platform.rdma_nic.QpcModule: [CxtResc]  QpcModule.qpcReqProc.readProc: cache hit, chnlNum 1, qpn 21
9249603951: cltsys.platform.rdma_nic.QpcModule: [CxtResc]  QpcModule.qpcReqProc.readProc: cache hit, chnlNum 2, qpn 21
9249708952: svrsys.platform.rdma_nic.CqcModule: [CxtResc]  CqcModule.cqcReqProc!
9249708952: svrsys.platform.rdma_nic.CqcModule: [CxtResc]  CqcModule.cqcReqProc: tx CQC read req posted!
9249708952: svrsys.platform.rdma_nic.CqcModule: [CxtResc]  CqcModule.cqcReqProc: out!
9249710952: svrsys.platform.rdma_nic.CqcModule: [CxtResc]  CqcModule.cqcRspProc!
9249710952: svrsys.platform.rdma_nic.CqcModule: [CxtResc]  CqcModule.cqcRspProc: out!
[SERVER: Server10-0] qpn_num: 21, latency_test consume_time 1420.50 ns
9252302250: svrsys.platform.rdma_nic.QpcModule: [CxtResc]  QpcModule.qpcReqProc.readProc: cache hit, chnlNum 3, qpn 22
9252817282: svrsys.platform.rdma_nic.QpcModule: [CxtResc]  QpcModule.qpcReqProc.readProc: cache hit, chnlNum 1, qpn 22
9253440451: cltsys.platform.rdma_nic.QpcModule: [CxtResc]  QpcModule.qpcReqProc.readProc: cache hit, chnlNum 2, qpn 22
9253545452: svrsys.platform.rdma_nic.CqcModule: [CxtResc]  CqcModule.cqcReqProc!
9253545452: svrsys.platform.rdma_nic.CqcModule: [CxtResc]  CqcModule.cqcReqProc: tx CQC read req posted!
9253545452: svrsys.platform.rdma_nic.CqcModule: [CxtResc]  CqcModule.cqcReqProc: out!
9253547452: svrsys.platform.rdma_nic.CqcModule: [CxtResc]  CqcModule.cqcRspProc!
9253547452: svrsys.platform.rdma_nic.CqcModule: [CxtResc]  CqcModule.cqcRspProc: out!
[SERVER: Server10-0] qpn_num: 22, latency_test consume_time 1420.50 ns
9256138750: svrsys.platform.rdma_nic.QpcModule: [CxtResc]  QpcModule.qpcReqProc.readProc: cache hit, chnlNum 3, qpn 23
9256653782: svrsys.platform.rdma_nic.QpcModule: [CxtResc]  QpcModule.qpcReqProc.readProc: cache hit, chnlNum 1, qpn 23
9257276951: cltsys.platform.rdma_nic.QpcModule: [CxtResc]  QpcModule.qpcReqProc.readProc: cache hit, chnlNum 2, qpn 23
9257381952: svrsys.platform.rdma_nic.CqcModule: [CxtResc]  CqcModule.cqcReqProc!
9257381952: svrsys.platform.rdma_nic.CqcModule: [CxtResc]  CqcModule.cqcReqProc: tx CQC read req posted!
9257381952: svrsys.platform.rdma_nic.CqcModule: [CxtResc]  CqcModule.cqcReqProc: out!
9257383952: svrsys.platform.rdma_nic.CqcModule: [CxtResc]  CqcModule.cqcRspProc!
9257383952: svrsys.platform.rdma_nic.CqcModule: [CxtResc]  CqcModule.cqcRspProc: out!
[SERVER: Server10-0] qpn_num: 23, latency_test consume_time 1420.50 ns
9259975250: svrsys.platform.rdma_nic.QpcModule: [CxtResc]  QpcModule.qpcReqProc.readProc: cache hit, chnlNum 3, qpn 24
9260490282: svrsys.platform.rdma_nic.QpcModule: [CxtResc]  QpcModule.qpcReqProc.readProc: cache hit, chnlNum 1, qpn 24
9261113451: cltsys.platform.rdma_nic.QpcModule: [CxtResc]  QpcModule.qpcReqProc.readProc: cache hit, chnlNum 2, qpn 24
9261218452: svrsys.platform.rdma_nic.CqcModule: [CxtResc]  CqcModule.cqcReqProc!
9261218452: svrsys.platform.rdma_nic.CqcModule: [CxtResc]  CqcModule.cqcReqProc: tx CQC read req posted!
9261218452: svrsys.platform.rdma_nic.CqcModule: [CxtResc]  CqcModule.cqcReqProc: out!
9261220452: svrsys.platform.rdma_nic.CqcModule: [CxtResc]  CqcModule.cqcRspProc!
9261220452: svrsys.platform.rdma_nic.CqcModule: [CxtResc]  CqcModule.cqcRspProc: out!
[SERVER: Server10-0] qpn_num: 24, latency_test consume_time 1420.50 ns
9263811750: svrsys.platform.rdma_nic.QpcModule: [CxtResc]  QpcModule.qpcReqProc.readProc: cache hit, chnlNum 3, qpn 25
9264326782: svrsys.platform.rdma_nic.QpcModule: [CxtResc]  QpcModule.qpcReqProc.readProc: cache hit, chnlNum 1, qpn 25
9264949951: cltsys.platform.rdma_nic.QpcModule: [CxtResc]  QpcModule.qpcReqProc.readProc: cache hit, chnlNum 2, qpn 25
9265054952: svrsys.platform.rdma_nic.CqcModule: [CxtResc]  CqcModule.cqcReqProc!
9265054952: svrsys.platform.rdma_nic.CqcModule: [CxtResc]  CqcModule.cqcReqProc: tx CQC read req posted!
9265054952: svrsys.platform.rdma_nic.CqcModule: [CxtResc]  CqcModule.cqcReqProc: out!
9265056952: svrsys.platform.rdma_nic.CqcModule: [CxtResc]  CqcModule.cqcRspProc!
9265056952: svrsys.platform.rdma_nic.CqcModule: [CxtResc]  CqcModule.cqcRspProc: out!
[SERVER: Server10-0] qpn_num: 25, latency_test consume_time 1420.50 ns
9267648250: svrsys.platform.rdma_nic.QpcModule: [CxtResc]  QpcModule.qpcReqProc.readProc: cache hit, chnlNum 3, qpn 26
9268163282: svrsys.platform.rdma_nic.QpcModule: [CxtResc]  QpcModule.qpcReqProc.readProc: cache hit, chnlNum 1, qpn 26
9268786451: cltsys.platform.rdma_nic.QpcModule: [CxtResc]  QpcModule.qpcReqProc.readProc: cache hit, chnlNum 2, qpn 26
9268891452: svrsys.platform.rdma_nic.CqcModule: [CxtResc]  CqcModule.cqcReqProc!
9268891452: svrsys.platform.rdma_nic.CqcModule: [CxtResc]  CqcModule.cqcReqProc: tx CQC read req posted!
9268891452: svrsys.platform.rdma_nic.CqcModule: [CxtResc]  CqcModule.cqcReqProc: out!
9268893452: svrsys.platform.rdma_nic.CqcModule: [CxtResc]  CqcModule.cqcRspProc!
9268893452: svrsys.platform.rdma_nic.CqcModule: [CxtResc]  CqcModule.cqcRspProc: out!
[SERVER: Server10-0] qpn_num: 26, latency_test consume_time 1420.50 ns
9271484750: svrsys.platform.rdma_nic.QpcModule: [CxtResc]  QpcModule.qpcReqProc.readProc: cache hit, chnlNum 3, qpn 27
9271999782: svrsys.platform.rdma_nic.QpcModule: [CxtResc]  QpcModule.qpcReqProc.readProc: cache hit, chnlNum 1, qpn 27
9272622951: cltsys.platform.rdma_nic.QpcModule: [CxtResc]  QpcModule.qpcReqProc.readProc: cache hit, chnlNum 2, qpn 27
9272727952: svrsys.platform.rdma_nic.CqcModule: [CxtResc]  CqcModule.cqcReqProc!
9272727952: svrsys.platform.rdma_nic.CqcModule: [CxtResc]  CqcModule.cqcReqProc: tx CQC read req posted!
9272727952: svrsys.platform.rdma_nic.CqcModule: [CxtResc]  CqcModule.cqcReqProc: out!
9272729952: svrsys.platform.rdma_nic.CqcModule: [CxtResc]  CqcModule.cqcRspProc!
9272729952: svrsys.platform.rdma_nic.CqcModule: [CxtResc]  CqcModule.cqcRspProc: out!
[SERVER: Server10-0] qpn_num: 27, latency_test consume_time 1420.50 ns
9275321250: svrsys.platform.rdma_nic.QpcModule: [CxtResc]  QpcModule.qpcReqProc.readProc: cache hit, chnlNum 3, qpn 28
9275836282: svrsys.platform.rdma_nic.QpcModule: [CxtResc]  QpcModule.qpcReqProc.readProc: cache hit, chnlNum 1, qpn 28
9276459451: cltsys.platform.rdma_nic.QpcModule: [CxtResc]  QpcModule.qpcReqProc.readProc: cache hit, chnlNum 2, qpn 28
9276564452: svrsys.platform.rdma_nic.CqcModule: [CxtResc]  CqcModule.cqcReqProc!
9276564452: svrsys.platform.rdma_nic.CqcModule: [CxtResc]  CqcModule.cqcReqProc: tx CQC read req posted!
9276564452: svrsys.platform.rdma_nic.CqcModule: [CxtResc]  CqcModule.cqcReqProc: out!
9276566452: svrsys.platform.rdma_nic.CqcModule: [CxtResc]  CqcModule.cqcRspProc!
9276566452: svrsys.platform.rdma_nic.CqcModule: [CxtResc]  CqcModule.cqcRspProc: out!
[SERVER: Server10-0] qpn_num: 28, latency_test consume_time 1420.50 ns
9279157750: svrsys.platform.rdma_nic.QpcModule: [CxtResc]  QpcModule.qpcReqProc.readProc: cache hit, chnlNum 3, qpn 29
9279672782: svrsys.platform.rdma_nic.QpcModule: [CxtResc]  QpcModule.qpcReqProc.readProc: cache hit, chnlNum 1, qpn 29
9280295951: cltsys.platform.rdma_nic.QpcModule: [CxtResc]  QpcModule.qpcReqProc.readProc: cache hit, chnlNum 2, qpn 29
9280400952: svrsys.platform.rdma_nic.CqcModule: [CxtResc]  CqcModule.cqcReqProc!
9280400952: svrsys.platform.rdma_nic.CqcModule: [CxtResc]  CqcModule.cqcReqProc: tx CQC read req posted!
9280400952: svrsys.platform.rdma_nic.CqcModule: [CxtResc]  CqcModule.cqcReqProc: out!
9280402952: svrsys.platform.rdma_nic.CqcModule: [CxtResc]  CqcModule.cqcRspProc!
9280402952: svrsys.platform.rdma_nic.CqcModule: [CxtResc]  CqcModule.cqcRspProc: out!
[SERVER: Server10-0] qpn_num: 29, latency_test consume_time 1420.50 ns
9282994250: svrsys.platform.rdma_nic.QpcModule: [CxtResc]  QpcModule.qpcReqProc.readProc: cache hit, chnlNum 3, qpn 30
9283509282: svrsys.platform.rdma_nic.QpcModule: [CxtResc]  QpcModule.qpcReqProc.readProc: cache hit, chnlNum 1, qpn 30
9284132451: cltsys.platform.rdma_nic.QpcModule: [CxtResc]  QpcModule.qpcReqProc.readProc: cache hit, chnlNum 2, qpn 30
9284237452: svrsys.platform.rdma_nic.CqcModule: [CxtResc]  CqcModule.cqcReqProc!
9284237452: svrsys.platform.rdma_nic.CqcModule: [CxtResc]  CqcModule.cqcReqProc: tx CQC read req posted!
9284237452: svrsys.platform.rdma_nic.CqcModule: [CxtResc]  CqcModule.cqcReqProc: out!
9284239452: svrsys.platform.rdma_nic.CqcModule: [CxtResc]  CqcModule.cqcRspProc!
9284239452: svrsys.platform.rdma_nic.CqcModule: [CxtResc]  CqcModule.cqcRspProc: out!
[SERVER: Server10-0] qpn_num: 30, latency_test consume_time 1420.50 ns
9286830750: svrsys.platform.rdma_nic.QpcModule: [CxtResc]  QpcModule.qpcReqProc.readProc: cache hit, chnlNum 3, qpn 31
9287345782: svrsys.platform.rdma_nic.QpcModule: [CxtResc]  QpcModule.qpcReqProc.readProc: cache hit, chnlNum 1, qpn 31
9287968951: cltsys.platform.rdma_nic.QpcModule: [CxtResc]  QpcModule.qpcReqProc.readProc: cache hit, chnlNum 2, qpn 31
9288073952: svrsys.platform.rdma_nic.CqcModule: [CxtResc]  CqcModule.cqcReqProc!
9288073952: svrsys.platform.rdma_nic.CqcModule: [CxtResc]  CqcModule.cqcReqProc: tx CQC read req posted!
9288073952: svrsys.platform.rdma_nic.CqcModule: [CxtResc]  CqcModule.cqcReqProc: out!
9288075952: svrsys.platform.rdma_nic.CqcModule: [CxtResc]  CqcModule.cqcRspProc!
9288075952: svrsys.platform.rdma_nic.CqcModule: [CxtResc]  CqcModule.cqcRspProc: out!
[SERVER: Server10-0] qpn_num: 31, latency_test consume_time 1420.50 ns
9290667250: svrsys.platform.rdma_nic.QpcModule: [CxtResc]  QpcModule.qpcReqProc.readProc: cache hit, chnlNum 3, qpn 32
9291182282: svrsys.platform.rdma_nic.QpcModule: [CxtResc]  QpcModule.qpcReqProc.readProc: cache hit, chnlNum 1, qpn 32
9291805451: cltsys.platform.rdma_nic.QpcModule: [CxtResc]  QpcModule.qpcReqProc.readProc: cache hit, chnlNum 2, qpn 32
9291910452: svrsys.platform.rdma_nic.CqcModule: [CxtResc]  CqcModule.cqcReqProc!
9291910452: svrsys.platform.rdma_nic.CqcModule: [CxtResc]  CqcModule.cqcReqProc: tx CQC read req posted!
9291910452: svrsys.platform.rdma_nic.CqcModule: [CxtResc]  CqcModule.cqcReqProc: out!
9291912452: svrsys.platform.rdma_nic.CqcModule: [CxtResc]  CqcModule.cqcRspProc!
9291912452: svrsys.platform.rdma_nic.CqcModule: [CxtResc]  CqcModule.cqcRspProc: out!
[SERVER: Server10-0] qpn_num: 32, latency_test consume_time 1420.50 ns
[SERVER: Server10-0] latency test end!,latency = 1428.34 ns
9296996000: svrsys.platform.rdma_nic.QpcModule: [CxtResc]  QpcModule.qpcReqProc.readProc: cache miss, chnlNum 3, qpn 0, rtnCnt 0
9297517396: svrsys.platform.rdma_nic.QpcModule: [CxtResc]  HanGuRnic.Cache.replaceEntry: out! 25
9297525428: svrsys.platform.rdma_nic.QpcModule: [CxtResc]  QpcModule.qpcReqProc.readProc: cache hit, chnlNum 1, qpn 0
9298145165: cltsys.platform.rdma_nic.QpcModule: [CxtResc]  QpcModule.qpcReqProc.readProc: cache hit, chnlNum 2, qpn 0
9298658189: cltsys.platform.rdma_nic.CqcModule: [CxtResc]  CqcModule.cqcReqProc!
9298658189: cltsys.platform.rdma_nic.CqcModule: [CxtResc]  CqcModule.cqcReqProc: rx CQC read req posted!
9298658189: cltsys.platform.rdma_nic.CqcModule: [CxtResc]  CqcModule.cqcReqProc: out!
9298660189: cltsys.platform.rdma_nic.CqcModule: [CxtResc]  CqcModule.cqcRspProc!
9298660189: cltsys.platform.rdma_nic.CqcModule: [CxtResc]  CqcModule.cqcRspProc: out!
Exiting @ tick 9299024250 because exiting with last active thread context
